PDB_DB00311_94
     RDKit          3D

 26 27  0  0  0  0  0  0  0  0999 V2000
    5.2330   16.2170  -17.8630 N   0  0  0  0  0  0  0  0  0  0  0  0
    4.5810   19.4790  -15.0420 C   0  0  0  0  0  0  0  0  0  0  0  0
    3.3580   20.0220  -15.6540 C   0  0  0  0  0  0  0  0  0  0  0  0
    2.9490   21.3270  -15.3380 C   0  0  0  0  0  0  0  0  0  0  0  0
    3.6980   22.1000  -14.4290 C   0  0  0  0  0  0  0  0  0  0  0  0
    2.1080   24.0180  -14.0190 C   0  0  0  0  0  0  0  0  0  0  0  0
    2.6760   16.1280  -17.8720 O   0  0  0  0  0  0  0  0  0  0  0  0
    3.9520   15.3450  -15.9940 O   0  0  0  0  0  0  0  0  0  0  0  0
    3.8610   16.2990  -17.0600 S   0  0  0  0  0  0  0  0  0  0  0  0
    3.8140   17.8180  -16.3560 C   0  0  0  0  0  0  0  0  0  0  0  0
    4.7830   18.2100  -15.4940 N   0  0  0  0  0  0  0  0  0  0  0  0
    2.5380   18.9680  -16.7050 S   0  0  0  0  0  0  0  0  0  0  0  0
    4.8650   21.5890  -13.8510 C   0  0  0  0  0  0  0  0  0  0  0  0
    5.2880   20.2970  -14.1580 C   0  0  0  0  0  0  0  0  0  0  0  0
    3.3920   23.3950  -14.0770 O   0  0  0  0  0  0  0  0  0  0  0  0
    2.1120   25.2290  -14.9280 C   0  0  0  0  0  0  0  0  0  0  0  0
    6.0179   16.1701  -17.1977 H   0  0  0  0  0  0  0  0  0  0  0  0
    5.2342   15.3744  -18.4554 H   0  0  0  0  0  0  0  0  0  0  0  0
    2.0432   21.7464  -15.8003 H   0  0  0  0  0  0  0  0  0  0  0  0
    1.3370   23.3078  -14.3526 H   0  0  0  0  0  0  0  0  0  0  0  0
    1.8884   24.3265  -12.9862 H   0  0  0  0  0  0  0  0  0  0  0  0
    5.4492   22.2074  -13.1537 H   0  0  0  0  0  0  0  0  0  0  0  0
    6.2055   19.9103  -13.6904 H   0  0  0  0  0  0  0  0  0  0  0  0
    2.1150   26.1448  -14.3187 H   0  0  0  0  0  0  0  0  0  0  0  0
    3.0101   25.2080  -15.5628 H   0  0  0  0  0  0  0  0  0  0  0  0
    1.2138   25.2139  -15.5628 H   0  0  0  0  0  0  0  0  0  0  0  0
  2  3  1  0
  3  4  2  0
  4  5  1  0
  1  9  1  0
  7  9  2  0
  8  9  2  0
  9 10  1  0
  2 11  1  0
 10 11  2  0
  3 12  1  0
 10 12  1  0
  5 13  2  0
  2 14  2  0
 13 14  1  0
  5 15  1  0
  6 15  1  0
  6 16  1  0
  1 17  1  0
  1 18  1  0
  4 19  1  0
  6 20  1  0
  6 21  1  0
 13 22  1  0
 14 23  1  0
 16 24  1  0
 16 25  1  0
 16 26  1  0
M  END
$$$$
