PDB_DB06626_95
     RDKit          3D

 46 49  0  0  0  0  0  0  0  0999 V2000
   62.0220   19.2470   46.7580 O   0  0  0  0  0  0  0  0  0  0  0  0
   62.4410   19.2240   47.8990 C   0  0  0  0  0  0  0  0  0  0  0  0
   62.4980   20.4290   48.6620 N   0  0  0  0  0  0  0  0  0  0  0  0
   62.0520   21.6740   48.0700 C   0  0  0  0  0  0  0  0  0  0  0  0
   62.9000   17.9420   48.5020 C   0  0  0  0  0  0  0  0  0  0  0  0
   64.1850   17.8490   49.0220 C   0  0  0  0  0  0  0  0  0  0  0  0
   64.6240   16.6610   49.5860 C   0  0  0  0  0  0  0  0  0  0  0  0
   63.7750   15.5550   49.6320 C   0  0  0  0  0  0  0  0  0  0  0  0
   62.0460   16.8310   48.5450 C   0  0  0  0  0  0  0  0  0  0  0  0
   62.4850   15.6480   49.1080 C   0  0  0  0  0  0  0  0  0  0  0  0
   60.3880   16.9320   47.8840 S   0  0  0  0  0  0  0  0  0  0  0  0
   59.3910   15.7140   48.7410 C   0  0  0  0  0  0  0  0  0  0  0  0
   59.3110   15.7500   50.1410 C   0  0  0  0  0  0  0  0  0  0  0  0
   58.5370   14.7940   50.8280 C   0  0  0  0  0  0  0  0  0  0  0  0
   58.7100   14.7330   48.0280 C   0  0  0  0  0  0  0  0  0  0  0  0
   57.9160   13.7580   48.7300 C   0  0  0  0  0  0  0  0  0  0  0  0
   57.1460   12.6910   48.2980 N   0  0  0  0  0  0  0  0  0  0  0  0
   56.5920   12.0680   49.3930 N   0  0  0  0  0  0  0  0  0  0  0  0
   56.9880   12.7120   50.5070 C   0  0  0  0  0  0  0  0  0  0  0  0
   57.8360   13.7940   50.1000 C   0  0  0  0  0  0  0  0  0  0  0  0
   56.6090   12.3550   51.9180 C   0  0  0  0  0  0  0  0  0  0  0  0
   57.3130   12.8630   52.9770 C   0  0  0  0  0  0  0  0  0  0  0  0
   57.0670   12.3110   54.3540 C   0  0  0  0  0  0  0  0  0  0  0  0
   57.6910   12.8560   55.4080 N   0  0  0  0  0  0  0  0  0  0  0  0
   57.5010   12.3940   56.6560 C   0  0  0  0  0  0  0  0  0  0  0  0
   56.6410   11.3290   56.8630 C   0  0  0  0  0  0  0  0  0  0  0  0
   55.9830   10.7480   55.7900 C   0  0  0  0  0  0  0  0  0  0  0  0
   56.1980   11.2450   54.5130 C   0  0  0  0  0  0  0  0  0  0  0  0
   62.8543   20.4136   49.6283 H   0  0  0  0  0  0  0  0  0  0  0  0
   61.7962   22.3880   48.8668 H   0  0  0  0  0  0  0  0  0  0  0  0
   62.8561   22.0925   47.4469 H   0  0  0  0  0  0  0  0  0  0  0  0
   61.1651   21.4867   47.4469 H   0  0  0  0  0  0  0  0  0  0  0  0
   64.8557   18.7201   48.9861 H   0  0  0  0  0  0  0  0  0  0  0  0
   65.6418   16.5905   49.9972 H   0  0  0  0  0  0  0  0  0  0  0  0
   64.1215   14.6121   50.0801 H   0  0  0  0  0  0  0  0  0  0  0  0
   61.8151   14.7762   49.1433 H   0  0  0  0  0  0  0  0  0  0  0  0
   59.8529   16.5251   50.7028 H   0  0  0  0  0  0  0  0  0  0  0  0
   58.4752   14.8212   51.9259 H   0  0  0  0  0  0  0  0  0  0  0  0
   58.7777   14.7020   46.9305 H   0  0  0  0  0  0  0  0  0  0  0  0
   57.0100   12.4094   47.3166 H   0  0  0  0  0  0  0  0  0  0  0  0
   55.7595   11.6805   52.1007 H   0  0  0  0  0  0  0  0  0  0  0  0
   58.0496   13.6652   52.8223 H   0  0  0  0  0  0  0  0  0  0  0  0
   58.0241   12.8580   57.5051 H   0  0  0  0  0  0  0  0  0  0  0  0
   56.4796   10.9432   57.8804 H   0  0  0  0  0  0  0  0  0  0  0  0
   55.2980    9.9022   55.9495 H   0  0  0  0  0  0  0  0  0  0  0  0
   55.6887   10.8014   53.6447 H   0  0  0  0  0  0  0  0  0  0  0  0
  1  2  2  0
  2  3  1  0
  3  4  1  0
  2  5  1  0
  5  6  2  0
  6  7  1  0
  7  8  2  0
  5  9  1  0
  8 10  1  0
  9 10  2  0
  9 11  1  0
 11 12  1  0
 12 13  2  0
 13 14  1  0
 12 15  1  0
 15 16  2  0
 16 17  1  0
 17 18  1  0
 18 19  2  0
 14 20  2  0
 16 20  1  0
 19 20  1  0
 19 21  1  0
 21 22  2  0
 22 23  1  0
 23 24  2  0
 24 25  1  0
 25 26  2  0
 26 27  1  0
 23 28  1  0
 27 28  2  0
  3 29  1  0
  4 30  1  0
  4 31  1  0
  4 32  1  0
  6 33  1  0
  7 34  1  0
  8 35  1  0
 10 36  1  0
 13 37  1  0
 14 38  1  0
 15 39  1  0
 17 40  1  0
 21 41  1  0
 22 42  1  0
 25 43  1  0
 26 44  1  0
 27 45  1  0
 28 46  1  0
M  END
$$$$
