PDB_DB00205_93
     RDKit          3D

 30 31  0  0  0  0  0  0  0  0999 V2000
   29.9140    4.1220   56.7220 N   0  0  0  0  0  0  0  0  0  0  0  0
   29.3240    4.9030   55.7340 C   0  0  0  0  0  0  0  0  0  0  0  0
   29.5360    4.2550   58.0550 C   0  0  0  0  0  0  0  0  0  0  0  0
   28.4730    5.2440   58.4760 C   0  0  0  0  0  0  0  0  0  0  0  0
   27.8940    6.0490   57.2970 C   0  0  0  0  0  0  0  0  0  0  0  0
   28.3220    5.8640   55.9980 N   0  0  0  0  0  0  0  0  0  0  0  0
   28.0040    5.4410   59.8290 C   0  0  0  0  0  0  0  0  0  0  0  0
   28.3740    6.5680   60.6530 C   0  0  0  0  0  0  0  0  0  0  0  0
   27.8580    6.7310   61.9770 C   0  0  0  0  0  0  0  0  0  0  0  0
   26.9130    5.7220   62.5250 C   0  0  0  0  0  0  0  0  0  0  0  0
   26.5110    4.5860   61.7600 C   0  0  0  0  0  0  0  0  0  0  0  0
   27.0490    4.4410   60.4210 C   0  0  0  0  0  0  0  0  0  0  0  0
   30.1160    3.4870   58.9970 N   0  0  0  0  0  0  0  0  0  0  0  0
   29.7400    4.7290   54.4110 N   0  0  0  0  0  0  0  0  0  0  0  0
   26.8050    7.0800   57.5460 C   0  0  0  0  0  0  0  0  0  0  0  0
   25.3700    6.7150   57.2120 C   0  0  0  0  0  0  0  0  0  0  0  0
   26.3920    6.0470   64.0460 Cl  0  0  0  0  0  0  0  0  0  0  0  0
   29.0700    7.3197   60.2523 H   0  0  0  0  0  0  0  0  0  0  0  0
   28.1581    7.5967   62.5857 H   0  0  0  0  0  0  0  0  0  0  0  0
   25.8138    3.8425   62.1738 H   0  0  0  0  0  0  0  0  0  0  0  0
   26.7488    3.5710   59.8185 H   0  0  0  0  0  0  0  0  0  0  0  0
   29.8375    3.5841   59.9839 H   0  0  0  0  0  0  0  0  0  0  0  0
   30.8381    2.8025   58.7306 H   0  0  0  0  0  0  0  0  0  0  0  0
   29.3191    5.2947   53.6602 H   0  0  0  0  0  0  0  0  0  0  0  0
   30.4674    4.0351   54.1869 H   0  0  0  0  0  0  0  0  0  0  0  0
   26.8350    7.3315   58.6164 H   0  0  0  0  0  0  0  0  0  0  0  0
   27.0437    7.8965   56.8487 H   0  0  0  0  0  0  0  0  0  0  0  0
   24.8022    6.5706   58.1430 H   0  0  0  0  0  0  0  0  0  0  0  0
   24.9125    7.5254   56.6255 H   0  0  0  0  0  0  0  0  0  0  0  0
   25.3553    5.7845   56.6255 H   0  0  0  0  0  0  0  0  0  0  0  0
  1  2  2  0
  1  3  1  0
  3  4  2  0
  4  5  1  0
  2  6  1  0
  5  6  2  0
  4  7  1  0
  7  8  2  0
  8  9  1  0
  9 10  2  0
 10 11  1  0
  7 12  1  0
 11 12  2  0
  3 13  1  0
  2 14  1  0
  5 15  1  0
 15 16  1  0
 10 17  1  0
  8 18  1  0
  9 19  1  0
 11 20  1  0
 12 21  1  0
 13 22  1  0
 13 23  1  0
 14 24  1  0
 14 25  1  0
 15 26  1  0
 15 27  1  0
 16 28  1  0
 16 29  1  0
 16 30  1  0
M  END
$$$$
