PDB_DB00560_99
     RDKit          3D

 81 84  0  0  0  0  0  0  0  0999 V2000
 -124.8790   20.6920  -24.8820 C   0  0  0  0  0  0  0  0  0  0  0  0
 -124.8890   20.4800  -26.3900 C   0  0  0  0  0  0  0  0  0  0  0  0
 -124.1110   19.2160  -26.7340 C   0  0  0  0  0  0  0  0  0  0  0  0
 -126.3260   20.3420  -26.8710 C   0  0  0  0  0  0  0  0  0  0  0  0
 -124.3120   21.6770  -27.0980 N   0  0  0  0  0  0  0  0  0  0  0  0
 -122.8740   21.8150  -27.4920 C   0  0  0  0  0  0  0  0  0  0  0  0
 -122.0290   22.4140  -26.3820 C   0  0  0  0  0  0  0  0  0  0  0  0
 -120.8110   22.2670  -26.3840 O   0  0  0  0  0  0  0  0  0  0  0  0
 -122.7010   23.1150  -25.4410 N   0  0  0  0  0  0  0  0  0  0  0  0
 -122.3200   23.4260  -24.1070 C   0  0  0  0  0  0  0  0  0  0  0  0
 -121.2200   22.8560  -23.4670 C   0  0  0  0  0  0  0  0  0  0  0  0
 -120.8590   23.2070  -22.1740 C   0  0  0  0  0  0  0  0  0  0  0  0
 -119.6640   22.5710  -21.5550 N   0  0  0  0  0  0  0  0  0  0  0  0
 -118.4160   22.7910  -22.3410 C   0  0  0  0  0  0  0  0  0  0  0  0
 -119.8630   21.1270  -21.2360 C   0  0  0  0  0  0  0  0  0  0  0  0
 -121.5800   24.2000  -21.4360 C   0  0  0  0  0  0  0  0  0  0  0  0
 -121.1690   24.5140  -20.0160 C   0  0  0  0  0  0  0  0  0  0  0  0
 -122.4490   24.7520  -19.2370 C   0  0  1  0  0  0  0  0  0  0  0  0
 -122.2320   24.9180  -17.7310 C   0  0  0  0  0  0  0  0  0  0  0  0
 -123.4340   25.5690  -17.0170 C   0  0  1  0  0  0  0  0  0  0  0  0
 -123.2310   25.5880  -15.4990 C   0  0  2  0  0  0  0  0  0  0  0  0
 -124.3970   25.0670  -14.6840 N   0  0  0  0  0  0  0  0  0  0  0  0
 -124.5670   23.5830  -14.7130 C   0  0  0  0  0  0  0  0  0  0  0  0
 -125.6890   25.8230  -14.7350 C   0  0  0  0  0  0  0  0  0  0  0  0
 -122.6660   26.9560  -14.9690 C   0  0  0  0  0  0  0  0  0  0  0  0
 -122.6220   26.9250  -13.6210 O   0  0  0  0  0  0  0  0  0  0  0  0
 -122.2630   28.0040  -15.7720 C   0  0  0  0  0  0  0  0  0  0  0  0
 -121.6450   29.1920  -15.1680 C   0  0  0  0  0  0  0  0  0  0  0  0
 -121.6280   29.3390  -13.9340 O   0  0  0  0  0  0  0  0  0  0  0  0
 -121.0300   30.0590  -15.9610 N   0  0  0  0  0  0  0  0  0  0  0  0
 -122.5060   27.9120  -17.2080 C   0  0  0  0  0  0  0  0  0  0  0  0
 -121.8320   28.4410  -18.0730 O   0  0  0  0  0  0  0  0  0  0  0  0
 -123.6640   26.9710  -17.6100 C   0  0  2  0  0  0  0  0  0  0  0  0
 -124.8680   27.5250  -17.1140 O   0  0  0  0  0  0  0  0  0  0  0  0
 -123.7960   26.8860  -19.1180 C   0  0  0  0  0  0  0  0  0  0  0  0
 -124.5210   27.8690  -19.6270 O   0  0  0  0  0  0  0  0  0  0  0  0
 -123.2570   25.8770  -19.8530 C   0  0  0  0  0  0  0  0  0  0  0  0
 -123.4350   25.8480  -21.3040 C   0  0  0  0  0  0  0  0  0  0  0  0
 -124.0270   26.7300  -21.8540 O   0  0  0  0  0  0  0  0  0  0  0  0
 -122.6640   24.8430  -22.0680 C   0  0  0  0  0  0  0  0  0  0  0  0
 -123.0240   24.4190  -23.3820 C   0  0  0  0  0  0  0  0  0  0  0  0
 -124.0920   24.9300  -24.0370 O   0  0  0  0  0  0  0  0  0  0  0  0
 -124.9250   19.7172  -24.3744 H   0  0  0  0  0  0  0  0  0  0  0  0
 -123.9553   21.2136  -24.5912 H   0  0  0  0  0  0  0  0  0  0  0  0
 -125.7495   21.2983  -24.5912 H   0  0  0  0  0  0  0  0  0  0  0  0
 -123.8010   18.7124  -25.8065 H   0  0  0  0  0  0  0  0  0  0  0  0
 -124.7500   18.5407  -27.3219 H   0  0  0  0  0  0  0  0  0  0  0  0
 -123.2203   19.4823  -27.3219 H   0  0  0  0  0  0  0  0  0  0  0  0
 -126.9986   20.2774  -26.0030 H   0  0  0  0  0  0  0  0  0  0  0  0
 -126.5950   21.2184  -27.4789 H   0  0  0  0  0  0  0  0  0  0  0  0
 -126.4233   19.4304  -27.4789 H   0  0  0  0  0  0  0  0  0  0  0  0
 -124.8490   21.7676  -27.9722 H   0  0  0  0  0  0  0  0  0  0  0  0
 -122.4779   20.8193  -27.7405 H   0  0  0  0  0  0  0  0  0  0  0  0
 -122.8249   22.4933  -28.3566 H   0  0  0  0  0  0  0  0  0  0  0  0
 -123.6208   23.4754  -25.7324 H   0  0  0  0  0  0  0  0  0  0  0  0
 -120.6205   22.1056  -24.0032 H   0  0  0  0  0  0  0  0  0  0  0  0
 -117.5708   22.9400  -21.6529 H   0  0  0  0  0  0  0  0  0  0  0  0
 -118.2224   21.9131  -22.9749 H   0  0  0  0  0  0  0  0  0  0  0  0
 -118.5342   23.6822  -22.9749 H   0  0  0  0  0  0  0  0  0  0  0  0
 -119.8816   20.9918  -20.1445 H   0  0  0  0  0  0  0  0  0  0  0  0
 -120.8168   20.7850  -21.6642 H   0  0  0  0  0  0  0  0  0  0  0  0
 -119.0373   20.5397  -21.6642 H   0  0  0  0  0  0  0  0  0  0  0  0
 -120.6144   23.6673  -19.5853 H   0  0  0  0  0  0  0  0  0  0  0  0
 -120.5122   25.3956  -19.9788 H   0  0  0  0  0  0  0  0  0  0  0  0
 -123.0481   23.8334  -19.3219 H   0  0  0  0  0  0  0  0  0  0  0  0
 -122.0583   23.9252  -17.2904 H   0  0  0  0  0  0  0  0  0  0  0  0
 -121.3678   25.5848  -17.5947 H   0  0  0  0  0  0  0  0  0  0  0  0
 -124.3423   24.9723  -17.1873 H   0  0  0  0  0  0  0  0  0  0  0  0
 -122.4416   24.8407  -15.3303 H   0  0  0  0  0  0  0  0  0  0  0  0
 -124.6110   23.1988  -13.6832 H   0  0  0  0  0  0  0  0  0  0  0  0
 -125.4999   23.3310  -15.2386 H   0  0  0  0  0  0  0  0  0  0  0  0
 -123.7153   23.1266  -15.2386 H   0  0  0  0  0  0  0  0  0  0  0  0
 -126.0358   26.0259  -13.7110 H   0  0  0  0  0  0  0  0  0  0  0  0
 -125.5365   26.7743  -15.2657 H   0  0  0  0  0  0  0  0  0  0  0  0
 -126.4436   25.2240  -15.2657 H   0  0  0  0  0  0  0  0  0  0  0  0
 -122.2893   27.7104  -13.1184 H   0  0  0  0  0  0  0  0  0  0  0  0
 -120.5890   30.8996  -15.5612 H   0  0  0  0  0  0  0  0  0  0  0  0
 -120.9933   29.8918  -16.9767 H   0  0  0  0  0  0  0  0  0  0  0  0
 -124.8516   27.5174  -16.1242 H   0  0  0  0  0  0  0  0  0  0  0  0
 -124.6751   27.9159  -20.6038 H   0  0  0  0  0  0  0  0  0  0  0  0
 -124.3123   24.6121  -24.9483 H   0  0  0  0  0  0  0  0  0  0  0  0
  2  1  1  0
  3  2  1  0
  4  2  1  0
  5  2  1  0
  6  5  1  0
  7  6  1  0
  8  7  2  0
  9  7  1  0
 10  9  1  0
 11 10  2  0
 12 11  1  0
 13 12  1  0
 14 13  1  0
 15 13  1  0
 16 12  2  0
 17 16  1  0
 18 17  1  0
 19 18  1  0
 20 19  1  0
 21 20  1  0
 22 21  1  0
 23 22  1  0
 24 22  1  0
 25 21  1  0
 26 25  1  0
 27 25  2  0
 28 27  1  0
 29 28  2  0
 30 28  1  0
 31 27  1  0
 32 31  2  0
 33 20  1  0
 33 31  1  0
 33 34  1  1
 35 33  1  0
 36 35  1  0
 37 35  2  0
 37 18  1  0
 38 37  1  0
 39 38  2  0
 40 38  1  0
 40 16  1  0
 41 40  2  0
 41 10  1  0
 42 41  1  0
  1 43  1  0
  1 44  1  0
  1 45  1  0
  3 46  1  0
  3 47  1  0
  3 48  1  0
  4 49  1  0
  4 50  1  0
  4 51  1  0
  5 52  1  0
  6 53  1  0
  6 54  1  0
  9 55  1  0
 11 56  1  0
 14 57  1  0
 14 58  1  0
 14 59  1  0
 15 60  1  0
 15 61  1  0
 15 62  1  0
 17 63  1  0
 17 64  1  0
 18 65  1  1
 19 66  1  0
 19 67  1  0
 20 68  1  1
 21 69  1  6
 23 70  1  0
 23 71  1  0
 23 72  1  0
 24 73  1  0
 24 74  1  0
 24 75  1  0
 26 76  1  0
 30 77  1  0
 30 78  1  0
 34 79  1  0
 36 80  1  0
 42 81  1  0
M  END
$$$$
