PDB_DB01199_95
     RDKit          3D

 86 92  0  0  0  0  0  0  0  0999 V2000
   75.6900  108.3970   65.8200 N   0  0  0  0  0  0  0  0  0  0  0  0
   74.8490  109.0250   64.8610 C   0  0  0  0  0  0  0  0  0  0  0  0
   75.3230  110.4030   64.5330 C   0  0  0  0  0  0  0  0  0  0  0  0
   76.8040  110.4650   64.3550 C   0  0  0  0  0  0  0  0  0  0  0  0
   77.6300  109.3580   64.7100 C   0  0  0  0  0  0  0  0  0  0  0  0
   77.0190  108.0750   65.1830 C   0  0  2  0  0  0  0  0  0  0  0  0
   77.4030  111.6470   63.8540 C   0  0  0  0  0  0  0  0  0  0  0  0
   78.8180  111.7070   63.7310 C   0  0  0  0  0  0  0  0  0  0  0  0
   79.6280  110.6130   64.1030 C   0  0  0  0  0  0  0  0  0  0  0  0
   79.0350  109.4260   64.5920 C   0  0  0  0  0  0  0  0  0  0  0  0
   81.0340  110.7200   63.9140 O   0  0  0  0  0  0  0  0  0  0  0  0
   81.8050  109.9800   64.8500 C   0  0  0  0  0  0  0  0  0  0  0  0
   82.1980  110.6130   66.0440 C   0  0  0  0  0  0  0  0  0  0  0  0
   82.9620  109.9460   66.9680 C   0  0  0  0  0  0  0  0  0  0  0  0
   83.3680  108.6250   66.6960 C   0  0  0  0  0  0  0  0  0  0  0  0
   82.9960  107.9950   65.5070 C   0  0  0  0  0  0  0  0  0  0  0  0
   82.2150  108.6690   64.5710 C   0  0  0  0  0  0  0  0  0  0  0  0
   83.4520  106.5260   65.2730 C   0  0  0  0  0  0  0  0  0  0  0  0
   84.3400  106.3500   64.0040 C   0  0  1  0  0  0  0  0  0  0  0  0
   85.7600  106.4540   64.2520 N   0  0  0  0  0  0  0  0  0  0  0  0
   86.2840  105.4050   65.0780 C   0  0  0  0  0  0  0  0  0  0  0  0
   86.0270  104.0200   64.5560 C   0  0  0  0  0  0  0  0  0  0  0  0
   84.7990  103.8460   63.7260 C   0  0  0  0  0  0  0  0  0  0  0  0
   83.9610  104.9560   63.4050 C   0  0  0  0  0  0  0  0  0  0  0  0
   84.4880  102.5510   63.2360 C   0  0  0  0  0  0  0  0  0  0  0  0
   83.3730  102.3500   62.4470 C   0  0  0  0  0  0  0  0  0  0  0  0
   82.5250  103.4570   62.1220 C   0  0  0  0  0  0  0  0  0  0  0  0
   82.8220  104.7560   62.6200 C   0  0  0  0  0  0  0  0  0  0  0  0
   82.0380  105.8420   62.1740 O   0  0  0  0  0  0  0  0  0  0  0  0
   80.7320  106.0170   62.6590 C   0  0  0  0  0  0  0  0  0  0  0  0
   79.9100  106.9270   61.9470 C   0  0  0  0  0  0  0  0  0  0  0  0
   78.6250  107.2280   62.4030 C   0  0  0  0  0  0  0  0  0  0  0  0
   78.1540  106.6270   63.5500 C   0  0  0  0  0  0  0  0  0  0  0  0
   78.9690  105.7070   64.2830 C   0  0  0  0  0  0  0  0  0  0  0  0
   80.2530  105.4100   63.8360 C   0  0  0  0  0  0  0  0  0  0  0  0
   76.7940  107.0240   64.0650 C   0  0  0  0  0  0  0  0  0  0  0  0
   79.4340  112.8480   63.2030 O   0  0  0  0  0  0  0  0  0  0  0  0
   78.7180  114.0690   63.1300 C   0  0  0  0  0  0  0  0  0  0  0  0
   81.7840  111.9010   66.2960 O   0  0  0  0  0  0  0  0  0  0  0  0
   83.0870  101.0790   61.9700 O   0  0  0  0  0  0  0  0  0  0  0  0
   84.0850  100.1440   61.9410 C   0  0  0  0  0  0  0  0  0  0  0  0
   81.4000  103.2620   61.3420 O   0  0  0  0  0  0  0  0  0  0  0  0
   75.4380  109.1450   67.0460 C   0  0  0  0  0  0  0  0  0  0  0  0
   86.0730  107.7480   64.9030 C   0  0  0  0  0  0  0  0  0  0  0  0
   86.4810  106.4310   62.9480 C   0  0  0  0  0  0  0  0  0  0  0  0
   74.8430  108.4212   63.9416 H   0  0  0  0  0  0  0  0  0  0  0  0
   73.8379  109.1012   65.2874 H   0  0  0  0  0  0  0  0  0  0  0  0
   74.8405  110.7305   63.6003 H   0  0  0  0  0  0  0  0  0  0  0  0
   75.0573  111.0596   65.3745 H   0  0  0  0  0  0  0  0  0  0  0  0
   77.7304  107.6234   65.8901 H   0  0  0  0  0  0  0  0  0  0  0  0
   76.7814  112.5070   63.5640 H   0  0  0  0  0  0  0  0  0  0  0  0
   79.6603  108.5670   64.8767 H   0  0  0  0  0  0  0  0  0  0  0  0
   83.2535  110.4363   67.9086 H   0  0  0  0  0  0  0  0  0  0  0  0
   83.9849  108.0838   67.4284 H   0  0  0  0  0  0  0  0  0  0  0  0
   81.9250  108.1807   63.6290 H   0  0  0  0  0  0  0  0  0  0  0  0
   84.0274  106.1952   66.1502 H   0  0  0  0  0  0  0  0  0  0  0  0
   82.5442  105.9237   65.1211 H   0  0  0  0  0  0  0  0  0  0  0  0
   84.1413  107.1731   63.3019 H   0  0  0  0  0  0  0  0  0  0  0  0
   87.3718  105.5446   65.1634 H   0  0  0  0  0  0  0  0  0  0  0  0
   85.7663  105.4779   66.0458 H   0  0  0  0  0  0  0  0  0  0  0  0
   86.8914  103.7270   63.9420 H   0  0  0  0  0  0  0  0  0  0  0  0
   85.8713  103.3938   65.4469 H   0  0  0  0  0  0  0  0  0  0  0  0
   85.1400  101.7012   63.4866 H   0  0  0  0  0  0  0  0  0  0  0  0
   80.2876  107.3995   61.0282 H   0  0  0  0  0  0  0  0  0  0  0  0
   77.9935  107.9395   61.8508 H   0  0  0  0  0  0  0  0  0  0  0  0
   78.5813  105.2355   65.1981 H   0  0  0  0  0  0  0  0  0  0  0  0
   80.8876  104.7079   64.3966 H   0  0  0  0  0  0  0  0  0  0  0  0
   76.2735  106.1449   64.4727 H   0  0  0  0  0  0  0  0  0  0  0  0
   76.1748  107.4391   63.2561 H   0  0  0  0  0  0  0  0  0  0  0  0
   78.5058  114.4309   64.1468 H   0  0  0  0  0  0  0  0  0  0  0  0
   79.3210  114.8162   62.5933 H   0  0  0  0  0  0  0  0  0  0  0  0
   77.7715  113.9075   62.5933 H   0  0  0  0  0  0  0  0  0  0  0  0
   82.0560  112.3535   67.1335 H   0  0  0  0  0  0  0  0  0  0  0  0
   84.3686   99.8783   62.9701 H   0  0  0  0  0  0  0  0  0  0  0  0
   83.7304   99.2454   61.4148 H   0  0  0  0  0  0  0  0  0  0  0  0
   84.9586  100.5563   61.4148 H   0  0  0  0  0  0  0  0  0  0  0  0
   80.8143  104.0280   61.1178 H   0  0  0  0  0  0  0  0  0  0  0  0
   75.6530  108.5067   67.9157 H   0  0  0  0  0  0  0  0  0  0  0  0
   76.0866  110.0330   67.0736 H   0  0  0  0  0  0  0  0  0  0  0  0
   74.3843  109.4595   67.0736 H   0  0  0  0  0  0  0  0  0  0  0  0
   86.0433  107.6254   65.9957 H   0  0  0  0  0  0  0  0  0  0  0  0
   87.0770  108.0784   64.5982 H   0  0  0  0  0  0  0  0  0  0  0  0
   85.3310  108.5007   64.5982 H   0  0  0  0  0  0  0  0  0  0  0  0
   87.5654  106.3964   63.1292 H   0  0  0  0  0  0  0  0  0  0  0  0
   86.1763  105.5421   62.3761 H   0  0  0  0  0  0  0  0  0  0  0  0
   86.2335  107.3375   62.3761 H   0  0  0  0  0  0  0  0  0  0  0  0
  1  2  1  0
  2  3  1  0
  3  4  1  0
  4  5  2  0
  1  6  1  0
  5  6  1  0
  4  7  1  0
  7  8  2  0
  8  9  1  0
  5 10  1  0
  9 10  2  0
  9 11  1  0
 11 12  1  0
 12 13  2  0
 13 14  1  0
 14 15  2  0
 15 16  1  0
 12 17  1  0
 16 17  2  0
 16 18  1  0
 18 19  1  0
 19 20  1  0
 20 21  1  0
 21 22  1  0
 22 23  1  0
 19 24  1  0
 23 24  2  0
 23 25  1  0
 25 26  2  0
 26 27  1  0
 24 28  1  0
 27 28  2  0
 28 29  1  0
 29 30  1  0
 30 31  2  0
 31 32  1  0
 32 33  2  0
 33 34  1  0
 30 35  1  0
 34 35  2  0
  6 36  1  0
 33 36  1  0
  8 37  1  0
 37 38  1  0
 13 39  1  0
 26 40  1  0
 40 41  1  0
 27 42  1  0
  1 43  1  0
 20 44  1  0
 20 45  1  0
  2 46  1  0
  2 47  1  0
  3 48  1  0
  3 49  1  0
  6 50  1  1
  7 51  1  0
 10 52  1  0
 14 53  1  0
 15 54  1  0
 17 55  1  0
 18 56  1  0
 18 57  1  0
 19 58  1  6
 21 59  1  0
 21 60  1  0
 22 61  1  0
 22 62  1  0
 25 63  1  0
 31 64  1  0
 32 65  1  0
 34 66  1  0
 35 67  1  0
 36 68  1  0
 36 69  1  0
 38 70  1  0
 38 71  1  0
 38 72  1  0
 39 73  1  0
 41 74  1  0
 41 75  1  0
 41 76  1  0
 42 77  1  0
 43 78  1  0
 43 79  1  0
 43 80  1  0
 44 81  1  0
 44 82  1  0
 44 83  1  0
 45 84  1  0
 45 85  1  0
 45 86  1  0
M  CHG  1  20   1
M  END
$$$$
