PDB_DB06616_98
     RDKit          3D

 65 68  0  0  0  0  0  0  0  0999 V2000
  -22.6110   45.1230  -28.9970 C   0  0  0  0  0  0  0  0  0  0  0  0
  -14.1530   46.3810  -32.2330 O   0  0  0  0  0  0  0  0  0  0  0  0
  -25.8390   40.7800  -30.6550 C   0  0  0  0  0  0  0  0  0  0  0  0
  -14.2880   42.8730  -29.8090 N   0  0  0  0  0  0  0  0  0  0  0  0
  -12.3970   47.3670  -30.0430 Cl  0  0  0  0  0  0  0  0  0  0  0  0
  -16.2080   45.1720  -26.6040 Cl  0  0  0  0  0  0  0  0  0  0  0  0
  -15.3480   42.5630  -30.0660 C   0  0  0  0  0  0  0  0  0  0  0  0
  -17.1030   40.9500  -31.1220 C   0  0  0  0  0  0  0  0  0  0  0  0
  -14.3390   46.2540  -28.3790 C   0  0  0  0  0  0  0  0  0  0  0  0
  -15.9300   45.3700  -30.7940 C   0  0  0  0  0  0  0  0  0  0  0  0
  -20.9940   41.0360  -31.3300 C   0  0  0  0  0  0  0  0  0  0  0  0
  -20.4550   43.5970  -29.8310 C   0  0  0  0  0  0  0  0  0  0  0  0
  -24.8880   39.6950  -31.1440 C   0  0  0  0  0  0  0  0  0  0  0  0
  -23.6830   40.3400  -31.8240 C   0  0  0  0  0  0  0  0  0  0  0  0
  -30.7870   37.9410  -30.0880 C   0  0  0  0  0  0  0  0  0  0  0  0
  -28.1160   40.4660  -29.4310 C   0  0  0  0  0  0  0  0  0  0  0  0
  -27.3370   38.8550  -31.0430 C   0  0  0  0  0  0  0  0  0  0  0  0
  -29.5610   40.0700  -29.7990 C   0  0  0  0  0  0  0  0  0  0  0  0
  -28.7500   38.5700  -31.4330 C   0  0  0  0  0  0  0  0  0  0  0  0
  -18.4590   40.6020  -31.4170 N   0  0  0  0  0  0  0  0  0  0  0  0
  -17.6610   44.3730  -29.2250 N   0  0  0  0  0  0  0  0  0  0  0  0
  -22.8850   43.9960  -29.7630 O   0  0  0  0  0  0  0  0  0  0  0  0
  -23.4240   41.5550  -31.1840 O   0  0  0  0  0  0  0  0  0  0  0  0
  -14.6380   46.0930  -30.9710 C   0  0  0  0  0  0  0  0  0  0  0  0
  -13.8680   46.5270  -29.7700 C   0  0  0  0  0  0  0  0  0  0  0  0
  -15.6240   45.5230  -28.1990 C   0  0  0  0  0  0  0  0  0  0  0  0
  -16.7650   42.2090  -30.3920 C   0  0  0  0  0  0  0  0  0  0  0  0
  -16.4160   45.0920  -29.4050 C   0  0  0  0  0  0  0  0  0  0  0  0
  -21.8520   43.1870  -30.1630 C   0  0  0  0  0  0  0  0  0  0  0  0
  -22.1150   41.9270  -30.8950 C   0  0  0  0  0  0  0  0  0  0  0  0
  -17.8870   43.1240  -29.9520 C   0  0  0  0  0  0  0  0  0  0  0  0
  -19.5630   41.4280  -31.0140 C   0  0  0  0  0  0  0  0  0  0  0  0
  -19.3150   42.7140  -30.2680 C   0  0  0  0  0  0  0  0  0  0  0  0
  -27.2250   40.2140  -30.5710 N   0  0  0  0  0  0  0  0  0  0  0  0
  -29.5660   38.7100  -30.2710 N   0  0  0  0  0  0  0  0  0  0  0  0
  -14.4760   45.5410  -33.2900 C   0  0  0  0  0  0  0  0  0  0  0  0
  -22.6737   44.8649  -27.9295 H   0  0  0  0  0  0  0  0  0  0  0  0
  -21.5985   45.4858  -29.2276 H   0  0  0  0  0  0  0  0  0  0  0  0
  -23.3439   45.9102  -29.2276 H   0  0  0  0  0  0  0  0  0  0  0  0
  -25.5218   41.1275  -29.6607 H   0  0  0  0  0  0  0  0  0  0  0  0
  -25.8262   41.6282  -31.3553 H   0  0  0  0  0  0  0  0  0  0  0  0
  -16.2928   40.2769  -31.4391 H   0  0  0  0  0  0  0  0  0  0  0  0
  -13.7516   46.5845  -27.5097 H   0  0  0  0  0  0  0  0  0  0  0  0
  -16.5153   45.0468  -31.6675 H   0  0  0  0  0  0  0  0  0  0  0  0
  -21.2060   40.1041  -31.8746 H   0  0  0  0  0  0  0  0  0  0  0  0
  -20.2616   44.5274  -29.2771 H   0  0  0  0  0  0  0  0  0  0  0  0
  -24.5472   39.0937  -30.2882 H   0  0  0  0  0  0  0  0  0  0  0  0
  -25.4107   39.0476  -31.8634 H   0  0  0  0  0  0  0  0  0  0  0  0
  -22.8080   39.6790  -31.7380 H   0  0  0  0  0  0  0  0  0  0  0  0
  -23.8912   40.5074  -32.8911 H   0  0  0  0  0  0  0  0  0  0  0  0
  -30.9844   37.8167  -29.0130 H   0  0  0  0  0  0  0  0  0  0  0  0
  -31.6286   38.4724  -30.5563 H   0  0  0  0  0  0  0  0  0  0  0  0
  -30.6714   36.9524  -30.5563 H   0  0  0  0  0  0  0  0  0  0  0  0
  -28.0849   41.5348  -29.1726 H   0  0  0  0  0  0  0  0  0  0  0  0
  -27.7832   39.8666  -28.5708 H   0  0  0  0  0  0  0  0  0  0  0  0
  -27.0325   38.1642  -30.2429 H   0  0  0  0  0  0  0  0  0  0  0  0
  -26.6842   38.7194  -31.9179 H   0  0  0  0  0  0  0  0  0  0  0  0
  -30.2047   40.1550  -28.9111 H   0  0  0  0  0  0  0  0  0  0  0  0
  -29.9420   40.7387  -30.5850 H   0  0  0  0  0  0  0  0  0  0  0  0
  -29.0749   39.2828  -32.2052 H   0  0  0  0  0  0  0  0  0  0  0  0
  -28.8358   37.5513  -31.8392 H   0  0  0  0  0  0  0  0  0  0  0  0
  -18.3831   44.7395  -28.5885 H   0  0  0  0  0  0  0  0  0  0  0  0
  -14.8447   44.5821  -32.8969 H   0  0  0  0  0  0  0  0  0  0  0  0
  -15.2579   46.0100  -33.9053 H   0  0  0  0  0  0  0  0  0  0  0  0
  -13.5813   45.3653  -33.9053 H   0  0  0  0  0  0  0  0  0  0  0  0
  4  7  3  0
  3 13  1  0
 13 14  1  0
 16 18  1  0
 17 19  1  0
  8 20  2  0
  1 22  1  0
 14 23  1  0
  2 24  1  0
 10 24  2  0
  5 25  1  0
  9 25  2  0
 24 25  1  0
  6 26  1  0
  9 26  1  0
  7 27  1  0
  8 27  1  0
 10 28  1  0
 21 28  1  0
 26 28  2  0
 12 29  1  0
 22 29  1  0
 11 30  1  0
 23 30  1  0
 29 30  2  0
 21 31  1  0
 27 31  2  0
 11 32  2  0
 20 32  1  0
 12 33  2  0
 31 33  1  0
 32 33  1  0
  3 34  1  0
 16 34  1  0
 17 34  1  0
 15 35  1  0
 18 35  1  0
 19 35  1  0
  2 36  1  0
  1 37  1  0
  1 38  1  0
  1 39  1  0
  3 40  1  0
  3 41  1  0
  8 42  1  0
  9 43  1  0
 10 44  1  0
 11 45  1  0
 12 46  1  0
 13 47  1  0
 13 48  1  0
 14 49  1  0
 14 50  1  0
 15 51  1  0
 15 52  1  0
 15 53  1  0
 16 54  1  0
 16 55  1  0
 17 56  1  0
 17 57  1  0
 18 58  1  0
 18 59  1  0
 19 60  1  0
 19 61  1  0
 21 62  1  0
 36 63  1  0
 36 64  1  0
 36 65  1  0
M  END
$$$$
