PDB_DB06401_96
     RDKit          3D

 67 72  0  0  0  0  0  0  0  0999 V2000
  -32.5390  -38.0770  -28.0720 C   0  0  2  0  0  0  0  0  0  0  0  0
  -32.1270  -38.2980  -26.6810 C   0  0  0  0  0  0  0  0  0  0  0  0
  -32.9220  -39.0120  -25.5670 C   0  0  0  0  0  0  0  0  0  0  0  0
  -34.1640  -38.2370  -25.5140 C   0  0  0  0  0  0  0  0  0  0  0  0
  -34.6630  -38.5840  -27.0350 C   0  0  0  0  0  0  0  0  0  0  0  0
  -34.1730  -38.4130  -28.5430 C   0  0  2  0  0  0  0  0  0  0  0  0
  -32.8670  -39.0660  -28.9980 N   0  0  0  0  0  0  0  0  0  0  0  0
  -33.1920  -38.4940  -30.3170 C   0  0  0  0  0  0  0  0  0  0  0  0
  -32.3160  -37.2630  -30.6040 C   0  0  0  0  0  0  0  0  0  0  0  0
  -30.9080  -37.4840  -30.4570 O   0  0  0  0  0  0  0  0  0  0  0  0
  -30.1020  -38.2320  -31.2360 C   0  0  0  0  0  0  0  0  0  0  0  0
  -30.5200  -38.9230  -32.3630 C   0  0  0  0  0  0  0  0  0  0  0  0
  -29.5670  -39.6440  -33.0650 C   0  0  0  0  0  0  0  0  0  0  0  0
  -28.7730  -38.2550  -30.8360 C   0  0  0  0  0  0  0  0  0  0  0  0
  -27.8240  -38.9750  -31.5370 C   0  0  0  0  0  0  0  0  0  0  0  0
  -28.2390  -39.6700  -32.6620 C   0  0  0  0  0  0  0  0  0  0  0  0
  -27.3690  -40.4180  -33.4310 C   0  0  0  0  0  0  0  0  0  0  0  0
  -25.9690  -40.3820  -32.9540 N   0  0  0  0  0  0  0  0  0  0  0  0
  -25.7420  -41.4350  -32.1290 C   0  0  0  0  0  0  0  0  0  0  0  0
  -26.5200  -42.4140  -31.6300 C   0  0  0  0  0  0  0  0  0  0  0  0
  -26.1130  -43.4160  -30.7420 C   0  0  0  0  0  0  0  0  0  0  0  0
  -24.7910  -43.3920  -30.3460 C   0  0  0  0  0  0  0  0  0  0  0  0
  -24.3400  -44.3650  -29.4670 O   0  0  0  0  0  0  0  0  0  0  0  0
  -24.0140  -42.3430  -30.8980 C   0  0  0  0  0  0  0  0  0  0  0  0
  -24.4840  -41.4000  -31.7620 C   0  0  0  0  0  0  0  0  0  0  0  0
  -23.9480  -40.3340  -32.4020 C   0  0  0  0  0  0  0  0  0  0  0  0
  -22.4840  -39.9990  -32.1980 C   0  0  0  0  0  0  0  0  0  0  0  0
  -24.8110  -39.6880  -33.2300 C   0  0  0  0  0  0  0  0  0  0  0  0
  -24.6640  -38.5120  -34.0430 C   0  0  0  0  0  0  0  0  0  0  0  0
  -25.8410  -37.9020  -34.4230 C   0  0  0  0  0  0  0  0  0  0  0  0
  -26.0140  -36.7700  -35.1630 C   0  0  0  0  0  0  0  0  0  0  0  0
  -24.8870  -36.1020  -35.5990 C   0  0  0  0  0  0  0  0  0  0  0  0
  -24.9690  -34.9620  -36.3750 O   0  0  0  0  0  0  0  0  0  0  0  0
  -23.6420  -36.6260  -35.2620 C   0  0  0  0  0  0  0  0  0  0  0  0
  -23.5600  -37.7470  -34.5090 C   0  0  0  0  0  0  0  0  0  0  0  0
  -31.8260  -37.2394  -28.0814 H   0  0  0  0  0  0  0  0  0  0  0  0
  -31.1820  -38.8562  -26.7534 H   0  0  0  0  0  0  0  0  0  0  0  0
  -32.2069  -37.2646  -26.3127 H   0  0  0  0  0  0  0  0  0  0  0  0
  -33.1197  -40.0615  -25.8305 H   0  0  0  0  0  0  0  0  0  0  0  0
  -32.3892  -39.0510  -24.6054 H   0  0  0  0  0  0  0  0  0  0  0  0
  -34.8601  -38.6054  -24.7460 H   0  0  0  0  0  0  0  0  0  0  0  0
  -34.0754  -37.1728  -25.2502 H   0  0  0  0  0  0  0  0  0  0  0  0
  -34.8102  -39.6724  -26.9744 H   0  0  0  0  0  0  0  0  0  0  0  0
  -35.3010  -37.6893  -27.0858 H   0  0  0  0  0  0  0  0  0  0  0  0
  -35.0917  -38.2031  -29.1104 H   0  0  0  0  0  0  0  0  0  0  0  0
  -33.0149  -39.2527  -31.0936 H   0  0  0  0  0  0  0  0  0  0  0  0
  -34.2480  -38.1861  -30.3195 H   0  0  0  0  0  0  0  0  0  0  0  0
  -32.5063  -36.9404  -31.6383 H   0  0  0  0  0  0  0  0  0  0  0  0
  -32.5915  -36.5040  -29.8570 H   0  0  0  0  0  0  0  0  0  0  0  0
  -31.5705  -38.8998  -32.6884 H   0  0  0  0  0  0  0  0  0  0  0  0
  -29.8693  -40.2073  -33.9601 H   0  0  0  0  0  0  0  0  0  0  0  0
  -28.4690  -37.6889  -29.9432 H   0  0  0  0  0  0  0  0  0  0  0  0
  -26.7732  -38.9957  -31.2124 H   0  0  0  0  0  0  0  0  0  0  0  0
  -27.7110  -41.4634  -33.4241 H   0  0  0  0  0  0  0  0  0  0  0  0
  -27.3752  -39.9798  -34.4399 H   0  0  0  0  0  0  0  0  0  0  0  0
  -27.5724  -42.4274  -31.9498 H   0  0  0  0  0  0  0  0  0  0  0  0
  -26.8114  -44.1840  -30.3780 H   0  0  0  0  0  0  0  0  0  0  0  0
  -23.3953  -44.3651  -29.1709 H   0  0  0  0  0  0  0  0  0  0  0  0
  -22.9545  -42.2860  -30.6078 H   0  0  0  0  0  0  0  0  0  0  0  0
  -22.2659  -39.9491  -31.1210 H   0  0  0  0  0  0  0  0  0  0  0  0
  -21.8614  -40.7779  -32.6625 H   0  0  0  0  0  0  0  0  0  0  0  0
  -22.2621  -39.0269  -32.6625 H   0  0  0  0  0  0  0  0  0  0  0  0
  -26.7640  -38.3948  -34.0836 H   0  0  0  0  0  0  0  0  0  0  0  0
  -27.0212  -36.4000  -35.4054 H   0  0  0  0  0  0  0  0  0  0  0  0
  -24.1426  -34.5051  -36.6723 H   0  0  0  0  0  0  0  0  0  0  0  0
  -22.7242  -36.1282  -35.6082 H   0  0  0  0  0  0  0  0  0  0  0  0
  -22.5538  -38.0962  -34.2340 H   0  0  0  0  0  0  0  0  0  0  0  0
  1  2  1  0
  2  3  1  0
  3  4  1  0
  4  5  1  0
  5  6  1  0
  6  1  1  0
  1  7  1  0
  6  7  1  0
  7  8  1  0
  8  9  1  0
  9 10  1  0
 10 11  1  0
 11 12  2  0
 12 13  1  0
 11 14  1  0
 14 15  2  0
 13 16  2  0
 15 16  1  0
 16 17  1  0
 17 18  1  0
 18 19  1  0
 19 20  2  0
 20 21  1  0
 21 22  2  0
 22 23  1  0
 22 24  1  0
 19 25  1  0
 24 25  2  0
 25 26  1  0
 26 27  1  0
 18 28  1  0
 26 28  2  0
 28 29  1  0
 29 30  2  0
 30 31  1  0
 31 32  2  0
 32 33  1  0
 32 34  1  0
 29 35  1  0
 34 35  2  0
  1 36  1  6
  2 37  1  0
  2 38  1  0
  3 39  1  0
  3 40  1  0
  4 41  1  0
  4 42  1  0
  5 43  1  0
  5 44  1  0
  6 45  1  6
  8 46  1  0
  8 47  1  0
  9 48  1  0
  9 49  1  0
 12 50  1  0
 13 51  1  0
 14 52  1  0
 15 53  1  0
 17 54  1  0
 17 55  1  0
 20 56  1  0
 21 57  1  0
 23 58  1  0
 24 59  1  0
 27 60  1  0
 27 61  1  0
 27 62  1  0
 30 63  1  0
 31 64  1  0
 33 65  1  0
 34 66  1  0
 35 67  1  0
M  END
$$$$
