PDB_DB04729_99
     RDKit          3D

 70 72  0  0  0  0  0  0  0  0999 V2000
  104.0070    0.1890  -31.9710 C   0  0  2  0  0  0  0  0  0  0  0  0
  104.4280    1.5850  -32.0240 O   0  0  0  0  0  0  0  0  0  0  0  0
  103.6410   -0.1720  -30.5090 C   0  0  2  0  0  0  0  0  0  0  0  0
  102.6230    0.7100  -30.0820 N   0  0  0  0  0  0  0  0  0  0  0  0
  104.9140   -0.1480  -29.5700 C   0  0  0  0  0  0  0  0  0  0  0  0
  105.9550   -1.1860  -30.1370 C   0  0  0  0  0  0  0  0  0  0  0  0
  106.3000   -0.7590  -31.6440 C   0  0  2  0  0  0  0  0  0  0  0  0
  105.1000   -0.6910  -32.4860 O   0  0  0  0  0  0  0  0  0  0  0  0
  107.2940   -1.7090  -32.3040 C   0  0  0  0  0  0  0  0  0  0  0  0
  107.6480   -1.2570  -33.6280 N   0  0  0  0  0  0  0  0  0  0  0  0
  104.3470    4.7860  -34.8970 C   0  0  2  0  0  0  0  0  0  0  0  0
  104.3800    5.4630  -36.1530 N   0  0  0  0  0  0  0  0  0  0  0  0
  105.6990    4.0050  -34.7040 C   0  0  0  0  0  0  0  0  0  0  0  0
  105.6800    3.2460  -33.3040 C   0  0  2  0  0  0  0  0  0  0  0  0
  106.9330    2.5070  -33.1000 N   0  0  0  0  0  0  0  0  0  0  0  0
  104.4430    2.2520  -33.2480 C   0  0  2  0  0  0  0  0  0  0  0  0
  103.0900    3.0600  -33.4770 C   0  0  2  0  0  0  0  0  0  0  0  0
  101.9690    2.1720  -33.4410 O   0  0  0  0  0  0  0  0  0  0  0  0
  103.1360    3.8090  -34.8670 C   0  0  1  0  0  0  0  0  0  0  0  0
  101.9170    4.5160  -35.0190 O   0  0  0  0  0  0  0  0  0  0  0  0
  101.1500    4.6050  -36.2550 C   0  0  2  0  0  0  0  0  0  0  0  0
  100.3900    5.9550  -36.1420 C   0  0  2  0  0  0  0  0  0  0  0  0
  101.3210    7.0090  -36.0240 O   0  0  0  0  0  0  0  0  0  0  0  0
   99.4000    5.8790  -34.8920 C   0  0  1  0  0  0  0  0  0  0  0  0
   98.6430    7.1600  -34.7100 N   0  0  0  0  0  0  0  0  0  0  0  0
   98.3490    4.6410  -35.0730 C   0  0  1  0  0  0  0  0  0  0  0  0
   97.5140    4.8360  -36.2000 O   0  0  0  0  0  0  0  0  0  0  0  0
   99.1410    3.3080  -35.2720 C   0  0  0  0  0  0  0  0  0  0  0  0
  100.1670    3.4650  -36.3760 O   0  0  0  0  0  0  0  0  0  0  0  0
   97.3320    4.4250  -33.9440 C   0  0  0  0  0  0  0  0  0  0  0  0
   98.8630    7.8890  -33.4500 C   0  0  0  0  0  0  0  0  0  0  0  0
  103.1220    0.0364  -32.6063 H   0  0  0  0  0  0  0  0  0  0  0  0
  103.2623   -1.2032  -30.4527 H   0  0  0  0  0  0  0  0  0  0  0  0
  102.5974    0.7321  -29.0526 H   0  0  0  0  0  0  0  0  0  0  0  0
  102.8154    1.6560  -30.4411 H   0  0  0  0  0  0  0  0  0  0  0  0
  105.3557    0.8594  -29.5652 H   0  0  0  0  0  0  0  0  0  0  0  0
  104.6342   -0.4107  -28.5391 H   0  0  0  0  0  0  0  0  0  0  0  0
  106.8691   -1.1718  -29.5252 H   0  0  0  0  0  0  0  0  0  0  0  0
  105.5370   -2.2032  -30.1114 H   0  0  0  0  0  0  0  0  0  0  0  0
  106.7520    0.2407  -31.5646 H   0  0  0  0  0  0  0  0  0  0  0  0
  108.2036   -1.7614  -31.6877 H   0  0  0  0  0  0  0  0  0  0  0  0
  106.8248   -2.7003  -32.3883 H   0  0  0  0  0  0  0  0  0  0  0  0
  108.2816   -0.4480  -33.5567 H   0  0  0  0  0  0  0  0  0  0  0  0
  108.1196   -2.0187  -34.1362 H   0  0  0  0  0  0  0  0  0  0  0  0
  104.2309    5.5089  -34.0760 H   0  0  0  0  0  0  0  0  0  0  0  0
  104.4295    6.4794  -35.9940 H   0  0  0  0  0  0  0  0  0  0  0  0
  105.2071    5.1581  -36.6857 H   0  0  0  0  0  0  0  0  0  0  0  0
  105.8184    3.2728  -35.5162 H   0  0  0  0  0  0  0  0  0  0  0  0
  106.5384    4.7157  -34.7238 H   0  0  0  0  0  0  0  0  0  0  0  0
  105.5820    3.9903  -32.5000 H   0  0  0  0  0  0  0  0  0  0  0  0
  107.1097    2.4028  -32.0906 H   0  0  0  0  0  0  0  0  0  0  0  0
  106.8567    1.5756  -33.5332 H   0  0  0  0  0  0  0  0  0  0  0  0
  104.5361    1.5026  -34.0478 H   0  0  0  0  0  0  0  0  0  0  0  0
  102.9822    3.8011  -32.6713 H   0  0  0  0  0  0  0  0  0  0  0  0
  101.7288    1.9817  -32.4996 H   0  0  0  0  0  0  0  0  0  0  0  0
  103.2578    3.0933  -35.6934 H   0  0  0  0  0  0  0  0  0  0  0  0
  101.7978    4.5489  -37.1422 H   0  0  0  0  0  0  0  0  0  0  0  0
   99.7896    6.1478  -37.0433 H   0  0  0  0  0  0  0  0  0  0  0  0
  101.4870    7.1970  -35.0663 H   0  0  0  0  0  0  0  0  0  0  0  0
  100.0135    5.7111  -33.9946 H   0  0  0  0  0  0  0  0  0  0  0  0
   98.9041    7.7885  -35.4831 H   0  0  0  0  0  0  0  0  0  0  0  0
   96.5961    5.0504  -35.8975 H   0  0  0  0  0  0  0  0  0  0  0  0
   99.6539    3.0474  -34.3345 H   0  0  0  0  0  0  0  0  0  0  0  0
   98.4356    2.5111  -35.5501 H   0  0  0  0  0  0  0  0  0  0  0  0
   97.8353    4.5319  -32.9717 H   0  0  0  0  0  0  0  0  0  0  0  0
   96.5293    5.1727  -34.0255 H   0  0  0  0  0  0  0  0  0  0  0  0
   96.9025    3.4156  -34.0255 H   0  0  0  0  0  0  0  0  0  0  0  0
   98.6614    7.2208  -32.5998 H   0  0  0  0  0  0  0  0  0  0  0  0
   99.9059    8.2359  -33.4044 H   0  0  0  0  0  0  0  0  0  0  0  0
   98.1862    8.7549  -33.4044 H   0  0  0  0  0  0  0  0  0  0  0  0
  2  1  1  0
  3  1  1  0
  4  3  1  0
  5  3  1  0
  6  5  1  0
  7  6  1  0
  8  7  1  0
  8  1  1  0
  9  7  1  0
 10  9  1  0
 12 11  1  0
 13 11  1  0
 14 13  1  0
 15 14  1  0
 16 14  1  0
 16  2  1  0
 17 16  1  0
 18 17  1  0
 19 17  1  0
 19 11  1  0
 20 19  1  0
 21 20  1  0
 22 21  1  0
 23 22  1  0
 24 22  1  0
 25 24  1  0
 26 24  1  0
 26 27  1  6
 28 26  1  0
 29 28  1  0
 29 21  1  0
 30 26  1  0
 31 25  1  0
  1 32  1  6
  3 33  1  6
  4 34  1  0
  4 35  1  0
  5 36  1  0
  5 37  1  0
  6 38  1  0
  6 39  1  0
  7 40  1  1
  9 41  1  0
  9 42  1  0
 10 43  1  0
 10 44  1  0
 11 45  1  1
 12 46  1  0
 12 47  1  0
 13 48  1  0
 13 49  1  0
 14 50  1  1
 15 51  1  0
 15 52  1  0
 16 53  1  6
 17 54  1  1
 18 55  1  0
 19 56  1  6
 21 57  1  6
 22 58  1  6
 23 59  1  0
 24 60  1  1
 25 61  1  0
 27 62  1  0
 28 63  1  0
 28 64  1  0
 30 65  1  0
 30 66  1  0
 30 67  1  0
 31 68  1  0
 31 69  1  0
 31 70  1  0
M  END
$$$$
