PDB_DB00537_96
     RDKit          3D

 42 45  0  0  0  0  0  0  0  0999 V2000
   44.6220   40.5710  -13.3790 O   0  0  0  0  0  0  0  0  0  0  0  0
   44.3640   42.0100  -13.4880 C   0  0  0  0  0  0  0  0  0  0  0  0
   44.1110   42.6720  -12.4750 O   0  0  0  0  0  0  0  0  0  0  0  0
   44.4190   42.6280  -14.8730 C   0  0  0  0  0  0  0  0  0  0  0  0
   44.1950   43.9870  -15.0990 C   0  0  0  0  0  0  0  0  0  0  0  0
   44.2620   44.4870  -16.3500 N   0  0  0  0  0  0  0  0  0  0  0  0
   44.5280   43.6940  -17.4030 C   0  0  0  0  0  0  0  0  0  0  0  0
   44.5830   44.2210  -18.6870 C   0  0  0  0  0  0  0  0  0  0  0  0
   44.8630   43.4160  -19.7890 C   0  0  0  0  0  0  0  0  0  0  0  0
   44.8930   44.0740  -21.0270 N   0  0  0  0  0  0  0  0  0  0  0  0
   44.7300   45.5220  -21.0090 C   0  0  0  0  0  0  0  0  0  0  0  0
   45.7990   46.0910  -21.9360 C   0  0  0  0  0  0  0  0  0  0  0  0
   45.6450   45.5370  -23.2620 N   0  0  0  0  0  0  0  0  0  0  0  0
   44.8000   44.3670  -23.3910 C   0  0  0  0  0  0  0  0  0  0  0  0
   45.0860   43.3600  -22.2800 C   0  0  0  0  0  0  0  0  0  0  0  0
   45.0960   42.0480  -19.6060 C   0  0  0  0  0  0  0  0  0  0  0  0
   45.3700   41.2150  -20.6300 F   0  0  0  0  0  0  0  0  0  0  0  0
   45.0430   41.5240  -18.3170 C   0  0  0  0  0  0  0  0  0  0  0  0
   44.7610   42.3490  -17.2350 C   0  0  0  0  0  0  0  0  0  0  0  0
   44.6970   41.8300  -15.9710 C   0  0  0  0  0  0  0  0  0  0  0  0
   44.9320   40.5070  -15.8560 O   0  0  0  0  0  0  0  0  0  0  0  0
   44.0110   45.9200  -16.5950 C   0  0  0  0  0  0  0  0  0  0  0  0
   44.7530   46.7290  -15.5400 C   0  0  0  0  0  0  0  0  0  0  0  0
   45.2920   46.6710  -16.9630 C   0  0  0  0  0  0  0  0  0  0  0  0
   44.8245   40.0415  -14.1906 H   0  0  0  0  0  0  0  0  0  0  0  0
   43.9631   44.6524  -14.2543 H   0  0  0  0  0  0  0  0  0  0  0  0
   44.4018   45.2956  -18.8367 H   0  0  0  0  0  0  0  0  0  0  0  0
   43.7282   45.7959  -21.3714 H   0  0  0  0  0  0  0  0  0  0  0  0
   44.8352   45.9209  -19.9893 H   0  0  0  0  0  0  0  0  0  0  0  0
   45.6959   47.1851  -21.9835 H   0  0  0  0  0  0  0  0  0  0  0  0
   46.7936   45.8280  -21.5466 H   0  0  0  0  0  0  0  0  0  0  0  0
   45.2493   46.2741  -23.8629 H   0  0  0  0  0  0  0  0  0  0  0  0
   43.7460   44.6765  -23.3333 H   0  0  0  0  0  0  0  0  0  0  0  0
   45.0091   43.8890  -24.3594 H   0  0  0  0  0  0  0  0  0  0  0  0
   46.1203   42.9931  -22.3546 H   0  0  0  0  0  0  0  0  0  0  0  0
   44.4221   42.4857  -22.3501 H   0  0  0  0  0  0  0  0  0  0  0  0
   45.2253   40.4515  -18.1544 H   0  0  0  0  0  0  0  0  0  0  0  0
   42.9951   45.8854  -17.0153 H   0  0  0  0  0  0  0  0  0  0  0  0
   44.3159   47.6625  -15.1560 H   0  0  0  0  0  0  0  0  0  0  0  0
   45.1665   46.5115  -14.5441 H   0  0  0  0  0  0  0  0  0  0  0  0
   46.2145   46.1125  -17.1799 H   0  0  0  0  0  0  0  0  0  0  0  0
   45.5661   47.4175  -17.7230 H   0  0  0  0  0  0  0  0  0  0  0  0
  2  1  1  0
  2  3  2  0
  2  4  1  0
  4  5  2  0
  5  6  1  0
  6  7  1  0
  7  8  1  0
  8  9  2  0
  9 10  1  0
 10 11  1  0
 11 12  1  0
 12 13  1  0
 13 14  1  0
 10 15  1  0
 14 15  1  0
  9 16  1  0
 16 17  1  0
 16 18  2  0
  7 19  2  0
 18 19  1  0
  4 20  1  0
 19 20  1  0
 20 21  2  0
  6 22  1  0
 22 23  1  0
 22 24  1  0
 23 24  1  0
  1 25  1  0
  5 26  1  0
  8 27  1  0
 11 28  1  0
 11 29  1  0
 12 30  1  0
 12 31  1  0
 13 32  1  0
 14 33  1  0
 14 34  1  0
 15 35  1  0
 15 36  1  0
 18 37  1  0
 22 38  1  0
 23 39  1  0
 23 40  1  0
 24 41  1  0
 24 42  1  0
M  END
$$$$
