PDB_DB06626_96
     RDKit          3D

 46 49  0  0  0  0  0  0  0  0999 V2000
   22.6350  130.1790   20.0690 O   0  0  0  0  0  0  0  0  0  0  0  0
   22.0790  130.4640   19.0140 C   0  0  0  0  0  0  0  0  0  0  0  0
   21.9110  131.8420   18.6780 N   0  0  0  0  0  0  0  0  0  0  0  0
   22.4140  132.8630   19.5840 C   0  0  0  0  0  0  0  0  0  0  0  0
   21.5500  129.3810   18.1230 C   0  0  0  0  0  0  0  0  0  0  0  0
   20.2050  129.3620   17.7580 C   0  0  0  0  0  0  0  0  0  0  0  0
   19.7020  128.3450   16.9480 C   0  0  0  0  0  0  0  0  0  0  0  0
   20.5410  127.3240   16.4900 C   0  0  0  0  0  0  0  0  0  0  0  0
   22.3890  128.3520   17.6750 C   0  0  0  0  0  0  0  0  0  0  0  0
   21.8930  127.3390   16.8620 C   0  0  0  0  0  0  0  0  0  0  0  0
   24.1140  128.3820   18.1480 S   0  0  0  0  0  0  0  0  0  0  0  0
   24.9600  127.2190   17.0740 C   0  0  0  0  0  0  0  0  0  0  0  0
   24.8620  127.3260   15.6720 C   0  0  0  0  0  0  0  0  0  0  0  0
   25.5300  126.3970   14.8310 C   0  0  0  0  0  0  0  0  0  0  0  0
   25.7140  126.2090   17.6660 C   0  0  0  0  0  0  0  0  0  0  0  0
   26.3980  125.2720   16.8160 C   0  0  0  0  0  0  0  0  0  0  0  0
   27.1840  124.1780   17.1260 N   0  0  0  0  0  0  0  0  0  0  0  0
   27.6060  123.5990   15.9540 N   0  0  0  0  0  0  0  0  0  0  0  0
   27.0970  124.2770   14.9060 C   0  0  0  0  0  0  0  0  0  0  0  0
   26.3050  125.3570   15.4380 C   0  0  0  0  0  0  0  0  0  0  0  0
   27.3390  123.8990   13.4720 C   0  0  0  0  0  0  0  0  0  0  0  0
   26.9370  124.6180   12.3720 C   0  0  0  0  0  0  0  0  0  0  0  0
   27.2380  124.0220   11.0240 C   0  0  0  0  0  0  0  0  0  0  0  0
   27.8850  122.8410   10.9660 N   0  0  0  0  0  0  0  0  0  0  0  0
   28.1970  122.2510    9.7900 C   0  0  0  0  0  0  0  0  0  0  0  0
   27.8500  122.8780    8.6010 C   0  0  0  0  0  0  0  0  0  0  0  0
   27.1890  124.0980    8.6300 C   0  0  0  0  0  0  0  0  0  0  0  0
   26.8710  124.6810    9.8590 C   0  0  0  0  0  0  0  0  0  0  0  0
   21.4384  132.1102   17.8030 H   0  0  0  0  0  0  0  0  0  0  0  0
   22.2553  132.5409   20.6238 H   0  0  0  0  0  0  0  0  0  0  0  0
   23.4892  133.0131   19.4067 H   0  0  0  0  0  0  0  0  0  0  0  0
   21.8778  133.8070   19.4067 H   0  0  0  0  0  0  0  0  0  0  0  0
   19.5334  130.1577   18.1127 H   0  0  0  0  0  0  0  0  0  0  0  0
   18.6384  128.3455   16.6673 H   0  0  0  0  0  0  0  0  0  0  0  0
   20.1467  126.5222   15.8484 H   0  0  0  0  0  0  0  0  0  0  0  0
   22.5657  126.5439   16.5082 H   0  0  0  0  0  0  0  0  0  0  0  0
   24.2640  128.1346   15.2263 H   0  0  0  0  0  0  0  0  0  0  0  0
   25.4537  126.4746   13.7364 H   0  0  0  0  0  0  0  0  0  0  0  0
   25.7850  126.1295   18.7608 H   0  0  0  0  0  0  0  0  0  0  0  0
   27.4144  123.8520   18.0755 H   0  0  0  0  0  0  0  0  0  0  0  0
   27.8868  122.9634   13.2861 H   0  0  0  0  0  0  0  0  0  0  0  0
   26.4197  125.5835   12.4725 H   0  0  0  0  0  0  0  0  0  0  0  0
   28.7206  121.2837    9.7756 H   0  0  0  0  0  0  0  0  0  0  0  0
   28.0985  122.4087    7.6377 H   0  0  0  0  0  0  0  0  0  0  0  0
   26.9172  124.6027    7.6912 H   0  0  0  0  0  0  0  0  0  0  0  0
   26.3402  125.6435    9.9025 H   0  0  0  0  0  0  0  0  0  0  0  0
  1  2  2  0
  2  3  1  0
  3  4  1  0
  2  5  1  0
  5  6  2  0
  6  7  1  0
  7  8  2  0
  5  9  1  0
  8 10  1  0
  9 10  2  0
  9 11  1  0
 11 12  1  0
 12 13  2  0
 13 14  1  0
 12 15  1  0
 15 16  2  0
 16 17  1  0
 17 18  1  0
 18 19  2  0
 14 20  2  0
 16 20  1  0
 19 20  1  0
 19 21  1  0
 21 22  2  0
 22 23  1  0
 23 24  2  0
 24 25  1  0
 25 26  2  0
 26 27  1  0
 23 28  1  0
 27 28  2  0
  3 29  1  0
  4 30  1  0
  4 31  1  0
  4 32  1  0
  6 33  1  0
  7 34  1  0
  8 35  1  0
 10 36  1  0
 13 37  1  0
 14 38  1  0
 15 39  1  0
 17 40  1  0
 21 41  1  0
 22 42  1  0
 25 43  1  0
 26 44  1  0
 27 45  1  0
 28 46  1  0
M  END
$$$$
