PDB_DB00188_70
     RDKit          3D

 53 54  0  0  0  0  0  0  0  0999 V2000
   20.2430 -164.4250   53.2300 N   0  0  0  0  0  0  0  0  0  0  0  0
   20.6320 -163.2540   53.7560 C   0  0  0  0  0  0  0  0  0  0  0  0
   19.7340 -162.1880   53.8290 C   0  0  0  0  0  0  0  0  0  0  0  0
   18.4260 -162.3380   53.3590 N   0  0  0  0  0  0  0  0  0  0  0  0
   18.0310 -163.5620   52.8120 C   0  0  0  0  0  0  0  0  0  0  0  0
   18.9420 -164.6060   52.7470 C   0  0  0  0  0  0  0  0  0  0  0  0
   21.9430 -163.1440   54.2170 C   0  0  0  0  0  0  0  0  0  0  0  0
   22.7710 -164.0060   53.9260 O   0  0  0  0  0  0  0  0  0  0  0  0
   22.2180 -162.0780   54.9860 N   0  0  0  0  0  0  0  0  0  0  0  0
   23.5500 -161.8480   55.5540 C   0  0  1  0  0  0  0  0  0  0  0  0
   23.9990 -160.5080   55.0190 C   0  0  0  0  0  0  0  0  0  0  0  0
   25.1390 -160.0650   55.7090 C   0  0  0  0  0  0  0  0  0  0  0  0
   26.3870 -160.6390   55.4570 C   0  0  0  0  0  0  0  0  0  0  0  0
   27.5200 -160.1860   56.1340 C   0  0  0  0  0  0  0  0  0  0  0  0
   27.4140 -159.1500   57.0590 C   0  0  0  0  0  0  0  0  0  0  0  0
   26.1740 -158.5660   57.3080 C   0  0  0  0  0  0  0  0  0  0  0  0
   25.0430 -159.0190   56.6320 C   0  0  0  0  0  0  0  0  0  0  0  0
   23.3660 -161.9010   57.0780 C   0  0  0  0  0  0  0  0  0  0  0  0
   22.3610 -161.4160   57.5940 O   0  0  0  0  0  0  0  0  0  0  0  0
   24.3140 -162.5660   57.7600 N   0  0  0  0  0  0  0  0  0  0  0  0
   24.2520 -162.7210   59.2290 C   0  0  1  0  0  0  0  0  0  0  0  0
   24.6210 -164.1260   59.6620 C   0  0  0  0  0  0  0  0  0  0  0  0
   23.8140 -165.1690   58.8520 C   0  0  0  0  0  0  0  0  0  0  0  0
   24.4930 -166.5420   58.9890 C   0  0  0  0  0  0  0  0  0  0  0  0
   22.3560 -165.2580   59.3320 C   0  0  0  0  0  0  0  0  0  0  0  0
   25.2360 -161.7310   59.9010 B   0  0  0  0  0  0  0  0  0  0  0  0
   26.5550 -161.9240   59.3670 O   0  0  0  0  0  0  0  0  0  0  0  0
   24.8170 -160.3860   59.6560 O   0  0  0  0  0  0  0  0  0  0  0  0
   20.0563 -161.2275   54.2574 H   0  0  0  0  0  0  0  0  0  0  0  0
   17.0060 -163.6963   52.4361 H   0  0  0  0  0  0  0  0  0  0  0  0
   18.6428 -165.5733   52.3171 H   0  0  0  0  0  0  0  0  0  0  0  0
   21.4685 -161.3996   55.1833 H   0  0  0  0  0  0  0  0  0  0  0  0
   24.3235 -162.5837   55.2887 H   0  0  0  0  0  0  0  0  0  0  0  0
   24.2372 -160.6056   53.9495 H   0  0  0  0  0  0  0  0  0  0  0  0
   23.1891 -159.7770   55.1595 H   0  0  0  0  0  0  0  0  0  0  0  0
   26.4772 -161.4519   54.7215 H   0  0  0  0  0  0  0  0  0  0  0  0
   28.4986 -160.6479   55.9368 H   0  0  0  0  0  0  0  0  0  0  0  0
   28.3078 -158.7936   57.5919 H   0  0  0  0  0  0  0  0  0  0  0  0
   26.0878 -157.7476   58.0380 H   0  0  0  0  0  0  0  0  0  0  0  0
   24.0670 -158.5501   56.8259 H   0  0  0  0  0  0  0  0  0  0  0  0
   25.1050 -162.9788   57.2455 H   0  0  0  0  0  0  0  0  0  0  0  0
   23.2164 -162.5151   59.5374 H   0  0  0  0  0  0  0  0  0  0  0  0
   25.6957 -164.2874   59.4918 H   0  0  0  0  0  0  0  0  0  0  0  0
   24.3859 -164.2438   60.7301 H   0  0  0  0  0  0  0  0  0  0  0  0
   23.7972 -164.8536   57.7983 H   0  0  0  0  0  0  0  0  0  0  0  0
   24.6139 -166.7865   60.0546 H   0  0  0  0  0  0  0  0  0  0  0  0
   23.8703 -167.3089   58.5052 H   0  0  0  0  0  0  0  0  0  0  0  0
   25.4804 -166.5126   58.5052 H   0  0  0  0  0  0  0  0  0  0  0  0
   22.3315 -165.2595   60.4317 H   0  0  0  0  0  0  0  0  0  0  0  0
   21.7920 -164.3926   58.9538 H   0  0  0  0  0  0  0  0  0  0  0  0
   21.9014 -166.1856   58.9538 H   0  0  0  0  0  0  0  0  0  0  0  0
   27.2015 -162.0186   60.1107 H   0  0  0  0  0  0  0  0  0  0  0  0
   24.6727 -159.9229   60.5190 H   0  0  0  0  0  0  0  0  0  0  0  0
  1  2  2  0
  2  3  1  0
  3  4  2  0
  4  5  1  0
  1  6  1  0
  5  6  2  0
  2  7  1  0
  7  8  2  0
  7  9  1  0
  9 10  1  0
 10 11  1  0
 11 12  1  0
 12 13  2  0
 13 14  1  0
 14 15  2  0
 15 16  1  0
 12 17  1  0
 16 17  2  0
 10 18  1  0
 18 19  2  0
 18 20  1  0
 20 21  1  0
 21 22  1  0
 22 23  1  0
 23 24  1  0
 23 25  1  0
 21 26  1  0
 26 27  1  0
 26 28  1  0
  3 29  1  0
  5 30  1  0
  6 31  1  0
  9 32  1  0
 10 33  1  6
 11 34  1  0
 11 35  1  0
 13 36  1  0
 14 37  1  0
 15 38  1  0
 16 39  1  0
 17 40  1  0
 20 41  1  0
 21 42  1  1
 22 43  1  0
 22 44  1  0
 23 45  1  0
 24 46  1  0
 24 47  1  0
 24 48  1  0
 25 49  1  0
 25 50  1  0
 25 51  1  0
 27 52  1  0
 28 53  1  0
M  END
$$$$
