PDB_DB01409_97
     RDKit          3D

 48 52  0  0  0  0  0  0  0  0999 V2000
   50.6740    7.7540   61.3640 C   0  0  0  0  0  0  0  0  0  0  0  0
   49.9240    7.2510   60.5340 O   0  0  0  0  0  0  0  0  0  0  0  0
   52.6930    9.0950   61.0640 C   0  0  0  0  0  0  0  0  0  0  0  0
   52.7760    7.0950   62.4530 C   0  0  0  0  0  0  0  0  0  0  0  0
   51.9830   10.2630   60.8970 C   0  0  0  0  0  0  0  0  0  0  0  0
   52.6570   11.4420   60.7850 C   0  0  0  0  0  0  0  0  0  0  0  0
   54.0270   11.4240   60.8440 C   0  0  0  0  0  0  0  0  0  0  0  0
   53.0810    7.7530   63.6180 C   0  0  0  0  0  0  0  0  0  0  0  0
   53.6250    7.0690   64.6520 C   0  0  0  0  0  0  0  0  0  0  0  0
   53.8610    5.7240   64.5110 C   0  0  0  0  0  0  0  0  0  0  0  0
   50.5050    7.8370   66.4320 O   0  0  0  0  0  0  0  0  0  0  0  0
   50.1810    8.4080   62.5090 O   0  0  0  0  0  0  0  0  0  0  0  0
   52.4350    6.9360   60.0900 O   0  0  0  0  0  0  0  0  0  0  0  0
   54.3710    9.6790   61.0640 S   0  0  0  0  0  0  0  0  0  0  0  0
   53.2820    5.4280   62.8340 S   0  0  0  0  0  0  0  0  0  0  0  0
   46.4490    8.3690   65.2440 C   0  0  0  0  0  0  0  0  0  0  0  0
   48.6620    9.2110   65.2240 C   0  0  2  0  0  0  0  0  0  0  0  0
   48.5710    9.5840   63.7730 C   0  0  0  0  0  0  0  0  0  0  0  0
   48.8150    8.4010   62.8650 C   0  0  2  0  0  0  0  0  0  0  0  0
   48.4200    7.0670   63.4780 C   0  0  0  0  0  0  0  0  0  0  0  0
   48.4920    7.1040   64.9830 C   0  0  1  0  0  0  0  0  0  0  0  0
   49.9930    7.2760   65.2270 C   0  0  1  0  0  0  0  0  0  0  0  0
   50.1030    8.7340   65.3960 C   0  0  2  0  0  0  0  0  0  0  0  0
   47.6750    7.9990   67.0620 C   0  0  0  0  0  0  0  0  0  0  0  0
   52.1700    7.6930   61.2080 C   0  0  0  0  0  0  0  0  0  0  0  0
   47.8100    8.1680   65.6200 N   0  0  0  0  0  0  0  0  0  0  0  0
   50.8840   10.2445   60.8545 H   0  0  0  0  0  0  0  0  0  0  0  0
   52.1134   12.3887   60.6500 H   0  0  0  0  0  0  0  0  0  0  0  0
   54.7332   12.2645   60.7742 H   0  0  0  0  0  0  0  0  0  0  0  0
   52.8844    8.8313   63.7113 H   0  0  0  0  0  0  0  0  0  0  0  0
   53.8743    7.5836   65.5917 H   0  0  0  0  0  0  0  0  0  0  0  0
   54.2909    5.0144   65.2332 H   0  0  0  0  0  0  0  0  0  0  0  0
   52.7491    6.0386   60.3659 H   0  0  0  0  0  0  0  0  0  0  0  0
   45.8286    8.4606   66.1477 H   0  0  0  0  0  0  0  0  0  0  0  0
   46.3656    9.2892   64.6471 H   0  0  0  0  0  0  0  0  0  0  0  0
   46.1031    7.5122   64.6471 H   0  0  0  0  0  0  0  0  0  0  0  0
   48.3666   10.0753   65.8369 H   0  0  0  0  0  0  0  0  0  0  0  0
   47.5662    9.9839   63.5720 H   0  0  0  0  0  0  0  0  0  0  0  0
   49.3482   10.3347   63.5671 H   0  0  0  0  0  0  0  0  0  0  0  0
   48.1713    8.5066   61.9792 H   0  0  0  0  0  0  0  0  0  0  0  0
   47.3900    6.8265   63.1759 H   0  0  0  0  0  0  0  0  0  0  0  0
   49.1240    6.3019   63.1189 H   0  0  0  0  0  0  0  0  0  0  0  0
   48.0100    6.2069   65.3987 H   0  0  0  0  0  0  0  0  0  0  0  0
   50.3689    6.4013   64.6760 H   0  0  0  0  0  0  0  0  0  0  0  0
   50.6157    9.6434   65.0493 H   0  0  0  0  0  0  0  0  0  0  0  0
   48.2812    8.7578   67.5784 H   0  0  0  0  0  0  0  0  0  0  0  0
   46.6193    8.1164   67.3477 H   0  0  0  0  0  0  0  0  0  0  0  0
   48.0227    6.9953   67.3477 H   0  0  0  0  0  0  0  0  0  0  0  0
  1  2  2  0
  3  5  2  0
  5  6  1  0
  6  7  2  0
  4  8  2  0
  8  9  1  0
  9 10  2  0
  1 12  1  0
  3 14  1  0
  7 14  1  0
  4 15  1  0
 10 15  1  0
 17 18  1  0
 12 19  1  0
 18 19  1  0
 19 20  1  0
 20 21  1  0
 11 22  1  0
 21 22  1  0
 11 23  1  0
 17 23  1  0
 22 23  1  0
  1 25  1  0
  3 25  1  0
  4 25  1  0
 13 25  1  0
 16 26  1  0
 17 26  1  0
 21 26  1  0
 24 26  1  0
  5 27  1  0
  6 28  1  0
  7 29  1  0
  8 30  1  0
  9 31  1  0
 10 32  1  0
 13 33  1  0
 16 34  1  0
 16 35  1  0
 16 36  1  0
 17 37  1  1
 18 38  1  0
 18 39  1  0
 19 40  1  6
 20 41  1  0
 20 42  1  0
 21 43  1  1
 22 44  1  6
 23 45  1  6
 24 46  1  0
 24 47  1  0
 24 48  1  0
M  CHG  1  26   1
M  END
$$$$
