PDB_DB01137_97
     RDKit          3D

 46 49  0  0  0  0  0  0  0  0999 V2000
  140.6890   18.3740   20.7200 C   0  0  0  0  0  0  0  0  0  0  0  0
  147.5010   18.6130   17.6060 F   0  0  0  0  0  0  0  0  0  0  0  0
  147.6430   18.6250   12.4890 N   0  0  0  0  0  0  0  0  0  0  0  0
  139.4470   18.2970   20.5910 O   0  0  0  0  0  0  0  0  0  0  0  0
  146.3460   19.8960   14.1740 C   0  0  0  0  0  0  0  0  0  0  0  0
  146.3620   18.6140   14.8130 N   0  0  0  0  0  0  0  0  0  0  0  0
  143.5370   18.5430   14.5980 O   0  0  0  0  0  0  0  0  0  0  0  0
  147.6890   18.1400   14.9210 C   0  0  0  0  0  0  0  0  0  0  0  0
  141.8540   18.4590   16.9460 N   0  0  0  0  0  0  0  0  0  0  0  0
  143.5140   18.4490   20.7850 O   0  0  0  0  0  0  0  0  0  0  0  0
  141.3020   18.4740   15.7160 C   0  0  2  0  0  0  0  0  0  0  0  0
  141.1960   18.4240   21.8510 O   0  0  0  0  0  0  0  0  0  0  0  0
  145.5750   18.5840   16.0860 C   0  0  0  0  0  0  0  0  0  0  0  0
  143.3200   18.5000   17.0990 C   0  0  0  0  0  0  0  0  0  0  0  0
  144.1490   18.5430   15.9640 C   0  0  0  0  0  0  0  0  0  0  0  0
  147.1390   19.8930   12.8580 C   0  0  0  0  0  0  0  0  0  0  0  0
  148.2730   17.8580   13.5480 C   0  0  0  0  0  0  0  0  0  0  0  0
  142.2300   17.8960   14.6080 C   0  0  0  0  0  0  0  0  0  0  0  0
  143.8980   18.4960   18.3930 C   0  0  0  0  0  0  0  0  0  0  0  0
  146.1390   18.5770   17.3890 C   0  0  0  0  0  0  0  0  0  0  0  0
  140.9760   18.4190   18.1490 C   0  0  0  0  0  0  0  0  0  0  0  0
  145.2960   18.5340   18.5310 C   0  0  0  0  0  0  0  0  0  0  0  0
  140.9760   19.9570   15.3630 C   0  0  0  0  0  0  0  0  0  0  0  0
  143.0020   18.4530   19.6430 C   0  0  0  0  0  0  0  0  0  0  0  0
  148.5660   18.7600   11.3650 C   0  0  0  0  0  0  0  0  0  0  0  0
  141.5780   18.4120   19.5000 C   0  0  0  0  0  0  0  0  0  0  0  0
  139.0447   18.2572   19.6873 H   0  0  0  0  0  0  0  0  0  0  0  0
  145.3032   20.1730   13.9597 H   0  0  0  0  0  0  0  0  0  0  0  0
  146.8184   20.6204   14.8537 H   0  0  0  0  0  0  0  0  0  0  0  0
  148.3037   18.9000   15.4254 H   0  0  0  0  0  0  0  0  0  0  0  0
  147.6840   17.2055   15.5013 H   0  0  0  0  0  0  0  0  0  0  0  0
  140.4072   17.8349   15.7452 H   0  0  0  0  0  0  0  0  0  0  0  0
  147.9881   20.5840   12.9651 H   0  0  0  0  0  0  0  0  0  0  0  0
  146.4391   20.1980   12.0661 H   0  0  0  0  0  0  0  0  0  0  0  0
  148.1460   16.7879   13.3274 H   0  0  0  0  0  0  0  0  0  0  0  0
  149.3327   18.1515   13.5775 H   0  0  0  0  0  0  0  0  0  0  0  0
  141.7513   18.0472   13.6292 H   0  0  0  0  0  0  0  0  0  0  0  0
  142.3818   16.8265   14.8156 H   0  0  0  0  0  0  0  0  0  0  0  0
  139.8824   18.3947   18.0327 H   0  0  0  0  0  0  0  0  0  0  0  0
  145.7429   18.5304   19.5361 H   0  0  0  0  0  0  0  0  0  0  0  0
  140.8489   20.5352   16.2901 H   0  0  0  0  0  0  0  0  0  0  0  0
  141.8017   20.3840   14.7749 H   0  0  0  0  0  0  0  0  0  0  0  0
  140.0473   19.9983   14.7749 H   0  0  0  0  0  0  0  0  0  0  0  0
  149.5874   18.9094   11.7452 H   0  0  0  0  0  0  0  0  0  0  0  0
  148.5329   17.8475   10.7517 H   0  0  0  0  0  0  0  0  0  0  0  0
  148.2729   19.6248   10.7517 H   0  0  0  0  0  0  0  0  0  0  0  0
  1  4  1  0
  5  6  1  0
  6  8  1  0
  9 11  1  0
  1 12  2  0
  6 13  1  0
  9 14  1  0
  7 15  1  0
 13 15  1  0
 14 15  2  0
  3 16  1  0
  5 16  1  0
  3 17  1  0
  8 17  1  0
  7 18  1  0
 11 18  1  0
 14 19  1  0
  2 20  1  0
 13 20  2  0
  9 21  1  0
 19 22  2  0
 20 22  1  0
 11 23  1  0
 10 24  2  0
 19 24  1  0
  3 25  1  0
  1 26  1  0
 21 26  2  0
 24 26  1  0
  4 27  1  0
  5 28  1  0
  5 29  1  0
  8 30  1  0
  8 31  1  0
 11 32  1  1
 16 33  1  0
 16 34  1  0
 17 35  1  0
 17 36  1  0
 18 37  1  0
 18 38  1  0
 21 39  1  0
 22 40  1  0
 23 41  1  0
 23 42  1  0
 23 43  1  0
 25 44  1  0
 25 45  1  0
 25 46  1  0
M  END
$$$$
