PDB_DB01283_94
     RDKit          3D

 33 34  0  0  0  0  0  0  0  0999 V2000
  -84.2870   16.5330   -2.6600 O   0  0  0  0  0  0  0  0  0  0  0  0
  -84.2600   17.3510   -3.5620 C   0  0  0  0  0  0  0  0  0  0  0  0
  -83.3180   18.2930   -3.5580 O   0  0  0  0  0  0  0  0  0  0  0  0
  -85.2880   17.3010   -4.6670 C   0  0  0  0  0  0  0  0  0  0  0  0
  -85.2040   15.9990   -5.4300 C   0  0  0  0  0  0  0  0  0  0  0  0
  -84.6390   15.9620   -6.6990 C   0  0  0  0  0  0  0  0  0  0  0  0
  -84.5730   14.7590   -7.3930 C   0  0  0  0  0  0  0  0  0  0  0  0
  -83.9540   14.7270   -8.7640 C   0  0  0  0  0  0  0  0  0  0  0  0
  -85.0710   13.5860   -6.8340 C   0  0  0  0  0  0  0  0  0  0  0  0
  -85.6430   13.5700   -5.5650 C   0  0  0  0  0  0  0  0  0  0  0  0
  -85.7320   14.7480   -4.8330 C   0  0  0  0  0  0  0  0  0  0  0  0
  -86.2830   14.7900   -3.6000 N   0  0  0  0  0  0  0  0  0  0  0  0
  -86.8700   13.7300   -2.9990 C   0  0  0  0  0  0  0  0  0  0  0  0
  -86.3030   13.1800   -1.7480 C   0  0  0  0  0  0  0  0  0  0  0  0
  -84.8250   13.9090   -1.0410 Cl  0  0  0  0  0  0  0  0  0  0  0  0
  -86.9280   12.1010   -1.1340 C   0  0  0  0  0  0  0  0  0  0  0  0
  -88.0790   11.5350   -1.6820 C   0  0  0  0  0  0  0  0  0  0  0  0
  -88.6550   12.0180   -2.8550 C   0  0  0  0  0  0  0  0  0  0  0  0
  -88.1000   13.0960   -3.5350 C   0  0  0  0  0  0  0  0  0  0  0  0
  -88.6650   13.5500   -4.6680 F   0  0  0  0  0  0  0  0  0  0  0  0
  -83.2855   18.9636   -4.2856 H   0  0  0  0  0  0  0  0  0  0  0  0
  -86.2921   17.3960   -4.2281 H   0  0  0  0  0  0  0  0  0  0  0  0
  -85.0912   18.1282   -5.3649 H   0  0  0  0  0  0  0  0  0  0  0  0
  -84.2447   16.8828   -7.1537 H   0  0  0  0  0  0  0  0  0  0  0  0
  -82.8594   14.6704   -8.6709 H   0  0  0  0  0  0  0  0  0  0  0  0
  -84.3214   13.8466   -9.3117 H   0  0  0  0  0  0  0  0  0  0  0  0
  -84.2287   15.6405   -9.3117 H   0  0  0  0  0  0  0  0  0  0  0  0
  -85.0113   12.6497   -7.4082 H   0  0  0  0  0  0  0  0  0  0  0  0
  -86.0233   12.6280   -5.1430 H   0  0  0  0  0  0  0  0  0  0  0  0
  -86.2543   15.6827   -3.0870 H   0  0  0  0  0  0  0  0  0  0  0  0
  -86.5096   11.6882   -0.2042 H   0  0  0  0  0  0  0  0  0  0  0  0
  -88.5468   10.6801   -1.1718 H   0  0  0  0  0  0  0  0  0  0  0  0
  -89.5632   11.5388   -3.2493 H   0  0  0  0  0  0  0  0  0  0  0  0
  1  2  2  0
  2  3  1  0
  2  4  1  0
  4  5  1  0
  5  6  2  0
  6  7  1  0
  7  8  1  0
  7  9  2  0
  9 10  1  0
  5 11  1  0
 10 11  2  0
 11 12  1  0
 12 13  1  0
 13 14  2  0
 14 15  1  0
 14 16  1  0
 16 17  2  0
 17 18  1  0
 13 19  1  0
 18 19  2  0
 19 20  1  0
  3 21  1  0
  4 22  1  0
  4 23  1  0
  6 24  1  0
  8 25  1  0
  8 26  1  0
  8 27  1  0
  9 28  1  0
 10 29  1  0
 12 30  1  0
 16 31  1  0
 17 32  1  0
 18 33  1  0
M  END
$$$$
