PDB_DB00558_99
     RDKit          3D

 43 43  0  0  0  0  0  0  0  0999 V2000
   13.8540  -29.1530   49.8070 C   0  0  0  0  0  0  0  0  0  0  0  0
   13.6200  -30.2020   50.2090 O   0  0  0  0  0  0  0  0  0  0  0  0
   15.0610  -28.7400   49.3930 O   0  0  0  0  0  0  0  0  0  0  0  0
   12.7930  -28.0930   49.9100 C   0  0  0  0  0  0  0  0  0  0  0  0
   13.0170  -26.7640   49.1270 C   0  0  0  0  0  0  0  0  0  0  0  0
   11.8780  -25.7830   49.1020 C   0  0  1  0  0  0  0  0  0  0  0  0
   10.6100  -26.2220   49.7770 C   0  0  1  0  0  0  0  0  0  0  0  0
    9.4490  -25.4420   49.6310 N   0  0  0  0  0  0  0  0  0  0  0  0
    9.1020  -24.2530   50.2530 C   0  0  0  0  0  0  0  0  0  0  0  0
    9.6850  -23.7680   51.1120 O   0  0  0  0  0  0  0  0  0  0  0  0
    7.8780  -23.6110   49.6690 C   0  0  0  0  0  0  0  0  0  0  0  0
   10.3910  -27.6860   50.1150 C   0  0  1  0  0  0  0  0  0  0  0  0
   11.4340  -28.5830   50.0200 O   0  0  0  0  0  0  0  0  0  0  0  0
    9.3310  -28.1210   51.1180 C   0  0  2  0  0  0  0  0  0  0  0  0
    9.7350  -27.8390   52.3520 O   0  0  0  0  0  0  0  0  0  0  0  0
    8.9220  -29.5600   50.9640 C   0  0  2  0  0  0  0  0  0  0  0  0
    8.7140  -29.9360   49.7230 O   0  0  0  0  0  0  0  0  0  0  0  0
    7.8680  -29.9990   51.9340 C   0  0  0  0  0  0  0  0  0  0  0  0
    6.7540  -29.3200   51.8070 O   0  0  0  0  0  0  0  0  0  0  0  0
   12.2010  -24.4090   49.0650 N   0  0  0  0  0  0  0  0  0  0  0  0
   11.5470  -23.4410   48.2690 C   0  0  0  0  0  0  0  0  0  0  0  0
   10.6250  -23.7260   47.3880 N   0  0  0  0  0  0  0  0  0  0  0  0
   11.9530  -22.2250   48.4580 N   0  0  0  0  0  0  0  0  0  0  0  0
   12.6998  -30.4285   50.4953 H   0  0  0  0  0  0  0  0  0  0  0  0
   13.9674  -26.5530   48.6149 H   0  0  0  0  0  0  0  0  0  0  0  0
   11.5403  -25.8504   48.0573 H   0  0  0  0  0  0  0  0  0  0  0  0
   10.9809  -25.8758   50.7530 H   0  0  0  0  0  0  0  0  0  0  0  0
    8.7547  -25.8080   48.9640 H   0  0  0  0  0  0  0  0  0  0  0  0
    7.2214  -23.2666   50.4816 H   0  0  0  0  0  0  0  0  0  0  0  0
    8.1748  -22.7525   49.0486 H   0  0  0  0  0  0  0  0  0  0  0  0
    7.3404  -24.3432   49.0486 H   0  0  0  0  0  0  0  0  0  0  0  0
    9.8569  -27.7592   49.1561 H   0  0  0  0  0  0  0  0  0  0  0  0
    8.4176  -27.5453   50.9077 H   0  0  0  0  0  0  0  0  0  0  0  0
    9.1245  -28.2651   53.0046 H   0  0  0  0  0  0  0  0  0  0  0  0
    9.8145  -30.1312   51.2592 H   0  0  0  0  0  0  0  0  0  0  0  0
    8.2348  -30.8023   49.7166 H   0  0  0  0  0  0  0  0  0  0  0  0
    7.6532  -31.0642   51.7631 H   0  0  0  0  0  0  0  0  0  0  0  0
    8.2534  -29.8215   52.9489 H   0  0  0  0  0  0  0  0  0  0  0  0
    6.3963  -29.1020   52.7040 H   0  0  0  0  0  0  0  0  0  0  0  0
   10.1867  -22.9726   46.8392 H   0  0  0  0  0  0  0  0  0  0  0  0
   10.3366  -24.7040   47.2424 H   0  0  0  0  0  0  0  0  0  0  0  0
   11.5330  -21.4526   47.9215 H   0  0  0  0  0  0  0  0  0  0  0  0
   12.6957  -22.0309   49.1447 H   0  0  0  0  0  0  0  0  0  0  0  0
  1  2  1  0
  1  3  2  0
  1  4  1  0
  4  5  2  0
  5  6  1  0
  6  7  1  0
  7  8  1  0
  8  9  1  0
  9 10  2  0
  9 11  1  0
  7 12  1  0
  4 13  1  0
 12 13  1  0
 12 14  1  0
 14 15  1  0
 14 16  1  0
 16 17  1  0
 16 18  1  0
 18 19  1  0
  6 20  1  0
 20 21  2  3
 21 22  1  0
 21 23  1  0
  2 24  1  0
  5 25  1  0
  6 26  1  6
  7 27  1  1
  8 28  1  0
 11 29  1  0
 11 30  1  0
 11 31  1  0
 12 32  1  6
 14 33  1  6
 15 34  1  0
 16 35  1  1
 17 36  1  0
 18 37  1  0
 18 38  1  0
 19 39  1  0
 22 40  1  0
 22 41  1  0
 23 42  1  0
 23 43  1  0
M  END
$$$$
