PDB_DB00421_95
     RDKit          3D

 61 65  0  0  0  0  0  0  0  0999 V2000
   37.9780   21.9170   79.0070 C   0  0  0  0  0  0  0  0  0  0  0  0
   39.2230   25.6120   79.4000 C   0  0  0  0  0  0  0  0  0  0  0  0
   39.0540   24.1180   78.5960 C   0  0  1  0  0  0  0  0  0  0  0  0
   43.0910   25.4750   80.1470 C   0  0  1  0  0  0  0  0  0  0  0  0
   39.9400   23.0930   79.4260 C   0  0  1  0  0  0  0  0  0  0  0  0
   43.3230   26.9400   80.9910 C   0  0  0  0  0  0  0  0  0  0  0  0
   40.6890   26.0990   79.4760 C   0  0  0  0  0  0  0  0  0  0  0  0
   39.3720   21.6900   79.2590 C   0  0  0  0  0  0  0  0  0  0  0  0
   37.6660   23.3700   78.8140 C   0  0  2  0  0  0  0  0  0  0  0  0
   39.5100   24.1910   76.9710 C   0  0  0  0  0  0  0  0  0  0  0  0
   43.7320   25.6280   78.5970 C   0  0  0  0  0  0  0  0  0  0  0  0
   44.8520   27.1680   81.3120 C   0  0  0  0  0  0  0  0  0  0  0  0
   36.6320   23.8350   80.0260 C   0  0  0  0  0  0  0  0  0  0  0  0
   35.6780   24.8330   79.3630 C   0  0  0  0  0  0  0  0  0  0  0  0
   35.8430   24.4960   77.8680 C   0  0  0  0  0  0  0  0  0  0  0  0
   42.2210   20.8360   82.8850 C   0  0  0  0  0  0  0  0  0  0  0  0
   41.8000   20.2840   84.2660 C   0  0  0  0  0  0  0  0  0  0  0  0
   45.4660   25.9510   82.0290 C   0  0  0  0  0  0  0  0  0  0  0  0
   45.0300   24.5410   81.7170 C   0  0  0  0  0  0  0  0  0  0  0  0
   44.0470   24.2600   80.8050 C   0  0  0  0  0  0  0  0  0  0  0  0
   43.7320   22.7130   80.4290 C   0  0  0  0  0  0  0  0  0  0  0  0
   42.3170   22.4010   80.3510 C   0  0  2  0  0  0  0  0  0  0  0  0
   41.4490   23.4310   79.5080 C   0  0  2  0  0  0  0  0  0  0  0  0
   41.6330   25.0200   80.1380 C   0  0  1  0  0  0  0  0  0  0  0  0
   35.1860   24.9900   77.0020 O   0  0  0  0  0  0  0  0  0  0  0  0
   36.8870   23.5000   77.6780 O   0  0  0  0  0  0  0  0  0  0  0  0
   43.1170   20.2330   82.3070 O   0  0  0  0  0  0  0  0  0  0  0  0
   46.3410   26.1190   82.8720 O   0  0  0  0  0  0  0  0  0  0  0  0
   41.5810   22.2780   82.1380 S   0  0  0  0  0  0  0  0  0  0  0  0
   37.6886   21.3690   78.0982 H   0  0  0  0  0  0  0  0  0  0  0  0
   37.4150   21.5647   79.8839 H   0  0  0  0  0  0  0  0  0  0  0  0
   38.6308   26.3674   78.8627 H   0  0  0  0  0  0  0  0  0  0  0  0
   38.8712   25.4699   80.4325 H   0  0  0  0  0  0  0  0  0  0  0  0
   39.8574   23.2022   80.5174 H   0  0  0  0  0  0  0  0  0  0  0  0
   42.9562   27.7734   80.3738 H   0  0  0  0  0  0  0  0  0  0  0  0
   42.7678   26.8915   81.9393 H   0  0  0  0  0  0  0  0  0  0  0  0
   41.0476   26.3086   78.4574 H   0  0  0  0  0  0  0  0  0  0  0  0
   40.7160   27.0048   80.0995 H   0  0  0  0  0  0  0  0  0  0  0  0
   39.5139   21.0975   80.1748 H   0  0  0  0  0  0  0  0  0  0  0  0
   39.8644   21.1229   78.4553 H   0  0  0  0  0  0  0  0  0  0  0  0
   40.5940   24.3645   76.9018 H   0  0  0  0  0  0  0  0  0  0  0  0
   39.2584   23.2411   76.4765 H   0  0  0  0  0  0  0  0  0  0  0  0
   38.9745   25.0149   76.4765 H   0  0  0  0  0  0  0  0  0  0  0  0
   44.7999   25.8829   78.6654 H   0  0  0  0  0  0  0  0  0  0  0  0
   43.6159   24.6769   78.0567 H   0  0  0  0  0  0  0  0  0  0  0  0
   43.1989   26.4241   78.0567 H   0  0  0  0  0  0  0  0  0  0  0  0
   45.3935   27.3384   80.3698 H   0  0  0  0  0  0  0  0  0  0  0  0
   44.9387   28.0401   81.9768 H   0  0  0  0  0  0  0  0  0  0  0  0
   36.0773   22.9689   80.4160 H   0  0  0  0  0  0  0  0  0  0  0  0
   37.1653   24.2751   80.8815 H   0  0  0  0  0  0  0  0  0  0  0  0
   34.6414   24.6752   79.6955 H   0  0  0  0  0  0  0  0  0  0  0  0
   35.8980   25.8830   79.6062 H   0  0  0  0  0  0  0  0  0  0  0  0
   42.2621   20.8898   85.0594 H   0  0  0  0  0  0  0  0  0  0  0  0
   40.7050   20.3293   84.3607 H   0  0  0  0  0  0  0  0  0  0  0  0
   42.1333   19.2400   84.3607 H   0  0  0  0  0  0  0  0  0  0  0  0
   45.5197   23.7072   82.2414 H   0  0  0  0  0  0  0  0  0  0  0  0
   44.1887   22.4945   79.4525 H   0  0  0  0  0  0  0  0  0  0  0  0
   44.1495   22.0972   81.2392 H   0  0  0  0  0  0  0  0  0  0  0  0
   42.2584   21.4417   79.8160 H   0  0  0  0  0  0  0  0  0  0  0  0
   41.8394   23.3607   78.4820 H   0  0  0  0  0  0  0  0  0  0  0  0
   41.2983   24.9437   81.1831 H   0  0  0  0  0  0  0  0  0  0  0  0
  2  3  1  0
  3  5  1  0
  4  6  1  0
  2  7  1  0
  1  8  1  0
  5  8  1  0
  1  9  1  0
  3  9  1  0
  3 10  1  6
  4 11  1  6
  6 12  1  0
  9 13  1  0
 13 14  1  0
 14 15  1  0
 16 17  1  0
 12 18  1  0
 18 19  1  0
  4 20  1  0
 19 20  2  0
 20 21  1  0
 21 22  1  0
  5 23  1  0
 22 23  1  0
  4 24  1  0
  7 24  1  0
 23 24  1  0
 15 25  2  0
  9 26  1  6
 15 26  1  0
 16 27  2  0
 18 28  2  0
 16 29  1  0
 22 29  1  0
  1 30  1  0
  1 31  1  0
  2 32  1  0
  2 33  1  0
  5 34  1  1
  6 35  1  0
  6 36  1  0
  7 37  1  0
  7 38  1  0
  8 39  1  0
  8 40  1  0
 10 41  1  0
 10 42  1  0
 10 43  1  0
 11 44  1  0
 11 45  1  0
 11 46  1  0
 12 47  1  0
 12 48  1  0
 13 49  1  0
 13 50  1  0
 14 51  1  0
 14 52  1  0
 17 53  1  0
 17 54  1  0
 17 55  1  0
 19 56  1  0
 21 57  1  0
 21 58  1  0
 22 59  1  6
 23 60  1  6
 24 61  1  1
M  END
$$$$
