PDB_DB00552_96
     RDKit          3D

 35 37  0  0  0  0  0  0  0  0999 V2000
   72.5040   68.7570  101.0990 N   0  0  0  0  0  0  0  0  0  0  0  0
   72.3440   69.1870  102.3360 C   0  0  0  0  0  0  0  0  0  0  0  0
   73.5340   69.4220  102.9360 N   0  0  0  0  0  0  0  0  0  0  0  0
   73.8820   68.7170  100.8780 C   0  0  0  0  0  0  0  0  0  0  0  0
   74.5410   69.1210  101.9970 C   0  0  0  0  0  0  0  0  0  0  0  0
   75.8320   69.0110  102.4690 N   0  0  0  0  0  0  0  0  0  0  0  0
   76.7960   68.5490  101.7600 C   0  0  0  0  0  0  0  0  0  0  0  0
   76.7640   68.0230  100.5280 N   0  0  0  0  0  0  0  0  0  0  0  0
   75.8680   68.3760   99.4320 C   0  0  0  0  0  0  0  0  0  0  0  0
   74.4310   68.0070   99.7040 C   0  0  1  0  0  0  0  0  0  0  0  0
   74.3300   66.4080   99.7780 O   0  0  0  0  0  0  0  0  0  0  0  0
   72.9350   71.4270  104.4350 C   0  0  0  0  0  0  0  0  0  0  0  0
   71.9440   71.0340  105.5170 C   0  0  2  0  0  0  0  0  0  0  0  0
   71.6540   72.1390  106.3800 O   0  0  0  0  0  0  0  0  0  0  0  0
   70.7660   68.4500  106.2940 O   0  0  0  0  0  0  0  0  0  0  0  0
   71.7460   69.0810  107.0960 C   0  0  0  0  0  0  0  0  0  0  0  0
   72.6890   69.9500  106.2650 C   0  0  1  0  0  0  0  0  0  0  0  0
   73.3960   69.2070  105.2620 O   0  0  0  0  0  0  0  0  0  0  0  0
   73.7570   70.1270  104.2090 C   0  0  1  0  0  0  0  0  0  0  0  0
   71.3668   69.3357  102.8186 H   0  0  0  0  0  0  0  0  0  0  0  0
   77.7897   68.5905  102.2299 H   0  0  0  0  0  0  0  0  0  0  0  0
   77.4527   67.2827  100.3317 H   0  0  0  0  0  0  0  0  0  0  0  0
   75.9260   69.4621   99.2676 H   0  0  0  0  0  0  0  0  0  0  0  0
   76.1916   67.8091   98.5466 H   0  0  0  0  0  0  0  0  0  0  0  0
   73.7849   68.3459   98.8808 H   0  0  0  0  0  0  0  0  0  0  0  0
   74.3119   66.1220  100.7256 H   0  0  0  0  0  0  0  0  0  0  0  0
   72.4136   71.7279  103.5144 H   0  0  0  0  0  0  0  0  0  0  0  0
   73.5605   72.2866  104.7176 H   0  0  0  0  0  0  0  0  0  0  0  0
   70.9709   70.7096  105.1196 H   0  0  0  0  0  0  0  0  0  0  0  0
   71.7300   71.8495  107.3237 H   0  0  0  0  0  0  0  0  0  0  0  0
   70.0926   68.0164  106.8759 H   0  0  0  0  0  0  0  0  0  0  0  0
   71.2420   69.7146  107.8407 H   0  0  0  0  0  0  0  0  0  0  0  0
   72.3448   68.2970  107.5826 H   0  0  0  0  0  0  0  0  0  0  0  0
   73.3888   70.3702  107.0023 H   0  0  0  0  0  0  0  0  0  0  0  0
   74.8104   70.4437  104.1979 H   0  0  0  0  0  0  0  0  0  0  0  0
  1  2  2  0
  2  3  1  0
  1  4  1  0
  3  5  1  0
  4  5  2  0
  5  6  1  0
  6  7  2  0
  7  8  1  0
  8  9  1  0
  4 10  1  0
  9 10  1  0
 10 11  1  0
 12 13  1  0
 13 14  1  0
 15 16  1  0
 13 17  1  0
 16 17  1  0
 17 18  1  0
  3 19  1  0
 12 19  1  0
 18 19  1  0
  2 20  1  0
  7 21  1  0
  8 22  1  0
  9 23  1  0
  9 24  1  0
 10 25  1  6
 11 26  1  0
 12 27  1  0
 12 28  1  0
 13 29  1  6
 14 30  1  0
 15 31  1  0
 16 32  1  0
 16 33  1  0
 17 34  1  1
 19 35  1  1
M  END
$$$$
