PDB_DB06335_99
     RDKit          3D

 48 52  0  0  0  0  0  0  0  0999 V2000
   46.7800   50.8510   35.0450 C   0  0  1  0  0  0  0  0  0  0  0  0
   46.4170   51.4030   36.4610 C   0  0  1  0  0  0  0  0  0  0  0  0
   47.2850   49.3860   35.2530 C   0  0  0  0  0  0  0  0  0  0  0  0
   47.4540   48.6520   33.9130 C   0  0  1  0  0  0  0  0  0  0  0  0
   45.7880   50.1900   32.7670 C   0  0  2  0  0  0  0  0  0  0  0  0
   48.2770   50.8830   32.8870 C   0  0  1  0  0  0  0  0  0  0  0  0
   46.1430   48.7360   33.0990 C   0  0  0  0  0  0  0  0  0  0  0  0
   48.6420   49.3610   33.1420 C   0  0  0  0  0  0  0  0  0  0  0  0
   46.9770   50.9040   32.0030 C   0  0  0  0  0  0  0  0  0  0  0  0
   47.2230   49.0070   40.0900 C   0  0  1  0  0  0  0  0  0  0  0  0
   47.5640   48.1940   38.8860 C   0  0  0  0  0  0  0  0  0  0  0  0
   48.1810   50.0200   40.6900 C   0  0  0  0  0  0  0  0  0  0  0  0
   50.1390   50.2410   39.1100 C   0  0  0  0  0  0  0  0  0  0  0  0
   50.3000   49.7570   37.8420 N   0  0  0  0  0  0  0  0  0  0  0  0
   45.5100   50.8320   34.1520 C   0  0  0  0  0  0  0  0  0  0  0  0
   47.8880   51.6150   34.2470 C   0  0  0  0  0  0  0  0  0  0  0  0
   47.6520   51.4450   37.3980 C   0  0  0  0  0  0  0  0  0  0  0  0
   45.8830   52.7570   36.4260 N   0  0  0  0  0  0  0  0  0  0  0  0
   47.7030   50.5270   38.3750 N   0  0  0  0  0  0  0  0  0  0  0  0
   48.5390   52.2840   37.2570 O   0  0  0  0  0  0  0  0  0  0  0  0
   47.5470   47.2890   34.2220 O   0  0  0  0  0  0  0  0  0  0  0  0
   46.7350   49.4420   38.7750 C   0  0  2  0  0  0  0  0  0  0  0  0
   48.6860   50.7000   39.4800 C   0  0  1  0  0  0  0  0  0  0  0  0
   45.6533   50.7064   36.8372 H   0  0  0  0  0  0  0  0  0  0  0  0
   48.2552   49.4126   35.7707 H   0  0  0  0  0  0  0  0  0  0  0  0
   46.5366   48.8449   35.8506 H   0  0  0  0  0  0  0  0  0  0  0  0
   44.9236   50.2801   32.0927 H   0  0  0  0  0  0  0  0  0  0  0  0
   49.1400   51.3826   32.4227 H   0  0  0  0  0  0  0  0  0  0  0  0
   46.2662   48.1738   32.1616 H   0  0  0  0  0  0  0  0  0  0  0  0
   45.3297   48.3086   33.7039 H   0  0  0  0  0  0  0  0  0  0  0  0
   49.5587   49.3007   33.7470 H   0  0  0  0  0  0  0  0  0  0  0  0
   48.8037   48.8575   32.1775 H   0  0  0  0  0  0  0  0  0  0  0  0
   47.1712   50.3760   31.0577 H   0  0  0  0  0  0  0  0  0  0  0  0
   46.6978   51.9480   31.7980 H   0  0  0  0  0  0  0  0  0  0  0  0
   46.8285   48.6937   41.0678 H   0  0  0  0  0  0  0  0  0  0  0  0
   48.5949   48.1784   38.5025 H   0  0  0  0  0  0  0  0  0  0  0  0
   47.4428   47.1418   38.5890 H   0  0  0  0  0  0  0  0  0  0  0  0
   47.6583   50.7216   41.3567 H   0  0  0  0  0  0  0  0  0  0  0  0
   48.9685   49.5762   41.3168 H   0  0  0  0  0  0  0  0  0  0  0  0
   44.7253   50.2534   34.6614 H   0  0  0  0  0  0  0  0  0  0  0  0
   45.1917   51.8722   33.9886 H   0  0  0  0  0  0  0  0  0  0  0  0
   47.5199   52.6244   34.0112 H   0  0  0  0  0  0  0  0  0  0  0  0
   48.7891   51.6491   34.8769 H   0  0  0  0  0  0  0  0  0  0  0  0
   45.7485   53.0980   37.3886 H   0  0  0  0  0  0  0  0  0  0  0  0
   46.5437   53.3740   35.9323 H   0  0  0  0  0  0  0  0  0  0  0  0
   47.5549   47.1733   35.2052 H   0  0  0  0  0  0  0  0  0  0  0  0
   45.7643   49.7012   38.3271 H   0  0  0  0  0  0  0  0  0  0  0  0
   48.7796   51.7782   39.6770 H   0  0  0  0  0  0  0  0  0  0  0  0
  1  2  1  0
  1  3  1  1
  3  4  1  0
  4  7  1  0
  5  7  1  0
  4  8  1  0
  6  8  1  0
  5  9  1  0
  6  9  1  0
 10 11  1  0
 10 12  1  0
 13 14  3  0
  1 15  1  0
  5 15  1  0
  1 16  1  0
  6 16  1  0
  2 17  1  0
  2 18  1  0
 17 19  1  0
 17 20  2  0
  4 21  1  1
 10 22  1  0
 11 22  1  0
 19 22  1  0
 12 23  1  0
 13 23  1  0
 19 23  1  0
  2 24  1  1
  3 25  1  0
  3 26  1  0
  5 27  1  6
  6 28  1  6
  7 29  1  0
  7 30  1  0
  8 31  1  0
  8 32  1  0
  9 33  1  0
  9 34  1  0
 10 35  1  1
 11 36  1  0
 11 37  1  0
 12 38  1  0
 12 39  1  0
 15 40  1  0
 15 41  1  0
 16 42  1  0
 16 43  1  0
 18 44  1  0
 18 45  1  0
 21 46  1  0
 22 47  1  1
 23 48  1  1
M  END
$$$$
