PDB_DB01157_98
     RDKit          3D

 50 52  0  0  0  0  0  0  0  0999 V2000
   18.6730  -26.7070   42.6200 N   0  0  0  0  0  0  0  0  0  0  0  0
   19.2260  -25.9280   41.6760 C   0  0  0  0  0  0  0  0  0  0  0  0
   19.9670  -26.4710   40.7020 N   0  0  0  0  0  0  0  0  0  0  0  0
   20.1630  -27.7990   40.6610 C   0  0  0  0  0  0  0  0  0  0  0  0
   18.8390  -28.0430   42.6200 C   0  0  0  0  0  0  0  0  0  0  0  0
   19.6050  -28.6600   41.6250 C   0  0  0  0  0  0  0  0  0  0  0  0
   19.7660  -30.0670   41.6490 C   0  0  0  0  0  0  0  0  0  0  0  0
   19.1520  -30.8210   42.6680 C   0  0  0  0  0  0  0  0  0  0  0  0
   18.4000  -30.1790   43.6480 C   0  0  0  0  0  0  0  0  0  0  0  0
   18.2410  -28.7980   43.6250 C   0  0  0  0  0  0  0  0  0  0  0  0
   19.2790  -32.2180   42.7550 C   0  0  0  0  0  0  0  0  0  0  0  0
   18.3010  -32.9050   41.8920 N   0  0  0  0  0  0  0  0  0  0  0  0
   17.0170  -33.1000   42.2420 C   0  0  0  0  0  0  0  0  0  0  0  0
   16.0230  -32.2290   41.7710 C   0  0  0  0  0  0  0  0  0  0  0  0
   14.6880  -32.4370   42.1280 C   0  0  0  0  0  0  0  0  0  0  0  0
   14.3590  -33.5180   42.9580 C   0  0  0  0  0  0  0  0  0  0  0  0
   15.3480  -34.3870   43.4350 C   0  0  0  0  0  0  0  0  0  0  0  0
   16.6810  -34.1810   43.0670 C   0  0  0  0  0  0  0  0  0  0  0  0
   20.5140  -30.7340   40.6720 C   0  0  0  0  0  0  0  0  0  0  0  0
   13.6700  -31.6200   41.7120 O   0  0  0  0  0  0  0  0  0  0  0  0
   13.0550  -33.7170   43.3220 O   0  0  0  0  0  0  0  0  0  0  0  0
   14.9540  -35.4210   44.2390 O   0  0  0  0  0  0  0  0  0  0  0  0
   13.3590  -31.7540   40.3100 C   0  0  0  0  0  0  0  0  0  0  0  0
   12.3920  -34.7030   42.5060 C   0  0  0  0  0  0  0  0  0  0  0  0
   15.3010  -35.2160   45.6270 C   0  0  0  0  0  0  0  0  0  0  0  0
   19.0370  -24.6140   41.7090 N   0  0  0  0  0  0  0  0  0  0  0  0
   20.8960  -28.3230   39.6920 N   0  0  0  0  0  0  0  0  0  0  0  0
   17.9277  -30.7692   44.4471 H   0  0  0  0  0  0  0  0  0  0  0  0
   17.6417  -28.3012   44.4022 H   0  0  0  0  0  0  0  0  0  0  0  0
   20.2942  -32.5046   42.4430 H   0  0  0  0  0  0  0  0  0  0  0  0
   19.0898  -32.5172   43.7965 H   0  0  0  0  0  0  0  0  0  0  0  0
   18.6166  -33.2530   40.9754 H   0  0  0  0  0  0  0  0  0  0  0  0
   16.2941  -31.3836   41.1216 H   0  0  0  0  0  0  0  0  0  0  0  0
   17.4639  -34.8661   43.4244 H   0  0  0  0  0  0  0  0  0  0  0  0
   21.2503  -31.3905   41.1587 H   0  0  0  0  0  0  0  0  0  0  0  0
   19.8420  -31.3382   40.0447 H   0  0  0  0  0  0  0  0  0  0  0  0
   21.0375  -29.9975   40.0447 H   0  0  0  0  0  0  0  0  0  0  0  0
   12.3541  -32.1870   40.1971 H   0  0  0  0  0  0  0  0  0  0  0  0
   13.3875  -30.7638   39.8318 H   0  0  0  0  0  0  0  0  0  0  0  0
   14.0982  -32.4135   39.8318 H   0  0  0  0  0  0  0  0  0  0  0  0
   11.8957  -35.4410   43.1533 H   0  0  0  0  0  0  0  0  0  0  0  0
   11.6418  -34.2091   41.8710 H   0  0  0  0  0  0  0  0  0  0  0  0
   13.1325  -35.2114   41.8710 H   0  0  0  0  0  0  0  0  0  0  0  0
   14.5315  -35.6706   46.2683 H   0  0  0  0  0  0  0  0  0  0  0  0
   16.2746  -35.6840   45.8345 H   0  0  0  0  0  0  0  0  0  0  0  0
   15.3609  -34.1374   45.8345 H   0  0  0  0  0  0  0  0  0  0  0  0
   19.4601  -24.0145   40.9861 H   0  0  0  0  0  0  0  0  0  0  0  0
   18.4673  -24.1943   42.4575 H   0  0  0  0  0  0  0  0  0  0  0  0
   21.0497  -29.3408   39.6555 H   0  0  0  0  0  0  0  0  0  0  0  0
   21.3128  -27.7131   38.9743 H   0  0  0  0  0  0  0  0  0  0  0  0
  1  2  2  0
  2  3  1  0
  3  4  2  0
  1  5  1  0
  4  6  1  0
  5  6  2  0
  6  7  1  0
  7  8  2  0
  8  9  1  0
  5 10  1  0
  9 10  2  0
  8 11  1  0
 11 12  1  0
 12 13  1  0
 13 14  2  0
 14 15  1  0
 15 16  2  0
 16 17  1  0
 13 18  1  0
 17 18  2  0
  7 19  1  0
 15 20  1  0
 16 21  1  0
 17 22  1  0
 20 23  1  0
 21 24  1  0
 22 25  1  0
  2 26  1  0
  4 27  1  0
  9 28  1  0
 10 29  1  0
 11 30  1  0
 11 31  1  0
 12 32  1  0
 14 33  1  0
 18 34  1  0
 19 35  1  0
 19 36  1  0
 19 37  1  0
 23 38  1  0
 23 39  1  0
 23 40  1  0
 24 41  1  0
 24 42  1  0
 24 43  1  0
 25 44  1  0
 25 45  1  0
 25 46  1  0
 26 47  1  0
 26 48  1  0
 27 49  1  0
 27 50  1  0
M  END
$$$$
