PDB_DB00712_93
     RDKit          3D

 31 32  0  0  0  0  0  0  0  0999 V2000
   25.7030   25.5640   11.7310 C   0  0  0  0  0  0  0  0  0  0  0  0
   25.9650   24.8950   12.9470 C   0  0  0  0  0  0  0  0  0  0  0  0
   25.4500   23.6210   13.1640 C   0  0  0  0  0  0  0  0  0  0  0  0
   24.6770   23.0200   12.1690 C   0  0  0  0  0  0  0  0  0  0  0  0
   24.4210   23.6930   10.9590 C   0  0  0  0  0  0  0  0  0  0  0  0
   24.9370   24.9670   10.7450 C   0  0  0  0  0  0  0  0  0  0  0  0
   25.6920   22.9020   14.4740 C   0  0  0  0  0  0  0  0  0  0  0  0
   26.9670   22.9010   15.0900 C   0  0  0  0  0  0  0  0  0  0  0  0
   27.1540   22.2300   16.3370 C   0  0  0  0  0  0  0  0  0  0  0  0
   26.0390   21.5620   16.9510 C   0  0  0  0  0  0  0  0  0  0  0  0
   24.7930   21.5790   16.3360 C   0  0  0  0  0  0  0  0  0  0  0  0
   24.6100   22.2320   15.1130 C   0  0  0  0  0  0  0  0  0  0  0  0
   26.2080   20.7520   18.2200 C   0  0  2  0  0  0  0  0  0  0  0  0
   27.3880   21.2730   19.0370 C   0  0  0  0  0  0  0  0  0  0  0  0
   26.4410   19.2950   17.8220 C   0  0  0  0  0  0  0  0  0  0  0  0
   27.4480   18.9770   17.2390 O   0  0  0  0  0  0  0  0  0  0  0  0
   25.5420   18.3820   18.0790 O   0  0  0  0  0  0  0  0  0  0  0  0
   23.3820   22.2060   14.5300 F   0  0  0  0  0  0  0  0  0  0  0  0
   26.1126   26.5714   11.5657 H   0  0  0  0  0  0  0  0  0  0  0  0
   26.5759   25.3810   13.7220 H   0  0  0  0  0  0  0  0  0  0  0  0
   24.2648   22.0132   12.3315 H   0  0  0  0  0  0  0  0  0  0  0  0
   23.8115   23.2101   10.1810 H   0  0  0  0  0  0  0  0  0  0  0  0
   24.7380   25.4951    9.8008 H   0  0  0  0  0  0  0  0  0  0  0  0
   27.8118   23.4159   14.6092 H   0  0  0  0  0  0  0  0  0  0  0  0
   28.1411   22.2245   16.8225 H   0  0  0  0  0  0  0  0  0  0  0  0
   23.9420   21.0737   16.8160 H   0  0  0  0  0  0  0  0  0  0  0  0
   25.3062   20.8379   18.8440 H   0  0  0  0  0  0  0  0  0  0  0  0
   27.1637   21.1740   20.1093 H   0  0  0  0  0  0  0  0  0  0  0  0
   28.2880   20.6886   18.7951 H   0  0  0  0  0  0  0  0  0  0  0  0
   27.5624   22.3318   18.7951 H   0  0  0  0  0  0  0  0  0  0  0  0
   27.5944   18.0319   16.9833 H   0  0  0  0  0  0  0  0  0  0  0  0
  1  2  2  0
  2  3  1  0
  3  4  2  0
  4  5  1  0
  1  6  1  0
  5  6  2  0
  3  7  1  0
  7  8  2  0
  8  9  1  0
  9 10  2  0
 10 11  1  0
  7 12  1  0
 11 12  2  0
 10 13  1  0
 13 14  1  0
 13 15  1  0
 15 16  1  0
 15 17  2  0
 12 18  1  0
  1 19  1  0
  2 20  1  0
  4 21  1  0
  5 22  1  0
  6 23  1  0
  8 24  1  0
  9 25  1  0
 11 26  1  0
 13 27  1  1
 14 28  1  0
 14 29  1  0
 14 30  1  0
 16 31  1  0
M  END
$$$$
