PDB_DB08910_97
     RDKit          3D

 31 33  0  0  0  0  0  0  0  0999 V2000
  -74.3250  -49.7500  -28.5280 C   0  0  0  0  0  0  0  0  0  0  0  0
  -73.8540  -51.0110  -28.9050 C   0  0  0  0  0  0  0  0  0  0  0  0
  -73.9710  -51.4390  -30.2260 C   0  0  0  0  0  0  0  0  0  0  0  0
  -74.5640  -50.5910  -31.1640 C   0  0  0  0  0  0  0  0  0  0  0  0
  -75.0300  -49.3300  -30.7910 C   0  0  0  0  0  0  0  0  0  0  0  0
  -74.9120  -48.9070  -29.4710 C   0  0  0  0  0  0  0  0  0  0  0  0
  -74.8260  -50.7060  -32.5240 C   0  0  0  0  0  0  0  0  0  0  0  0
  -75.4310  -49.6070  -32.9540 N   0  0  0  0  0  0  0  0  0  0  0  0
  -75.5510  -48.7480  -31.9470 C   0  0  0  0  0  0  0  0  0  0  0  0
  -75.3570  -47.7070  -29.1130 N   0  0  0  0  0  0  0  0  0  0  0  0
  -76.0600  -47.6260  -32.0240 O   0  0  0  0  0  0  0  0  0  0  0  0
  -75.7990  -49.3710  -34.3530 C   0  0  1  0  0  0  0  0  0  0  0  0
  -74.5560  -51.6780  -33.2240 O   0  0  0  0  0  0  0  0  0  0  0  0
  -77.2870  -49.3250  -34.6490 C   0  0  0  0  0  0  0  0  0  0  0  0
  -75.1240  -48.0980  -34.8330 C   0  0  0  0  0  0  0  0  0  0  0  0
  -75.6090  -47.4230  -35.9550 N   0  0  0  0  0  0  0  0  0  0  0  0
  -76.7290  -47.8920  -36.6500 C   0  0  0  0  0  0  0  0  0  0  0  0
  -77.4630  -49.1440  -36.1740 C   0  0  0  0  0  0  0  0  0  0  0  0
  -74.1410  -47.6640  -34.2330 O   0  0  0  0  0  0  0  0  0  0  0  0
  -77.1240  -47.2670  -37.6320 O   0  0  0  0  0  0  0  0  0  0  0  0
  -74.2321  -49.4211  -27.4824 H   0  0  0  0  0  0  0  0  0  0  0  0
  -73.3890  -51.6684  -28.1556 H   0  0  0  0  0  0  0  0  0  0  0  0
  -73.6015  -52.4308  -30.5258 H   0  0  0  0  0  0  0  0  0  0  0  0
  -75.7898  -47.0882  -29.8135 H   0  0  0  0  0  0  0  0  0  0  0  0
  -75.2691  -47.3958  -28.1351 H   0  0  0  0  0  0  0  0  0  0  0  0
  -75.4439  -50.2532  -34.9059 H   0  0  0  0  0  0  0  0  0  0  0  0
  -77.7613  -50.2638  -34.3269 H   0  0  0  0  0  0  0  0  0  0  0  0
  -77.7597  -48.4924  -34.1074 H   0  0  0  0  0  0  0  0  0  0  0  0
  -75.1350  -46.5667  -36.2759 H   0  0  0  0  0  0  0  0  0  0  0  0
  -77.0538  -50.0233  -36.6929 H   0  0  0  0  0  0  0  0  0  0  0  0
  -78.5343  -49.0367  -36.3992 H   0  0  0  0  0  0  0  0  0  0  0  0
  1  2  2  0
  2  3  1  0
  3  4  2  0
  4  5  1  0
  1  6  1  0
  5  6  2  0
  4  7  1  0
  7  8  1  0
  5  9  1  0
  8  9  1  0
  6 10  1  0
  9 11  2  0
  8 12  1  0
  7 13  2  0
 12 14  1  0
 12 15  1  0
 15 16  1  0
 16 17  1  0
 14 18  1  0
 17 18  1  0
 15 19  2  0
 17 20  2  0
  1 21  1  0
  2 22  1  0
  3 23  1  0
 10 24  1  0
 10 25  1  0
 12 26  1  6
 14 27  1  0
 14 28  1  0
 16 29  1  0
 18 30  1  0
 18 31  1  0
M  END
$$$$
