PDB_DB00482_93
     RDKit          3D

 40 42  0  0  0  0  0  0  0  0999 V2000
  -32.3930   42.0950  -10.6380 S   0  0  0  0  0  0  0  0  0  0  0  0
  -32.2740   42.1500   -8.8570 C   0  0  0  0  0  0  0  0  0  0  0  0
  -33.2030   42.7870   -8.1280 C   0  0  0  0  0  0  0  0  0  0  0  0
  -33.0810   42.8110   -6.7440 C   0  0  0  0  0  0  0  0  0  0  0  0
  -32.0330   42.1170   -6.1140 C   0  0  0  0  0  0  0  0  0  0  0  0
  -31.1810   41.3350   -6.8490 C   0  0  0  0  0  0  0  0  0  0  0  0
  -31.2210   41.3910   -8.1900 C   0  0  0  0  0  0  0  0  0  0  0  0
  -31.9940   41.9580   -4.7100 N   0  0  0  0  0  0  0  0  0  0  0  0
  -32.1180   42.8540   -3.7880 C   0  0  0  0  0  0  0  0  0  0  0  0
  -32.3290   44.3210   -3.9500 C   0  0  0  0  0  0  0  0  0  0  0  0
  -33.3770   44.8620   -3.3430 C   0  0  0  0  0  0  0  0  0  0  0  0
  -33.6310   46.2140   -3.4510 C   0  0  0  0  0  0  0  0  0  0  0  0
  -32.7670   47.0200   -4.1940 C   0  0  0  0  0  0  0  0  0  0  0  0
  -33.0600   48.4890   -4.2850 C   0  0  0  0  0  0  0  0  0  0  0  0
  -31.6680   46.4570   -4.8230 C   0  0  0  0  0  0  0  0  0  0  0  0
  -31.4260   45.1440   -4.7240 C   0  0  0  0  0  0  0  0  0  0  0  0
  -32.0280   42.1980   -2.5380 C   0  0  0  0  0  0  0  0  0  0  0  0
  -31.8540   40.9250   -2.7710 C   0  0  0  0  0  0  0  0  0  0  0  0
  -31.7000   39.8570   -1.7520 C   0  0  0  0  0  0  0  0  0  0  0  0
  -32.5930   39.9530   -0.7850 F   0  0  0  0  0  0  0  0  0  0  0  0
  -30.4870   39.9270   -1.2450 F   0  0  0  0  0  0  0  0  0  0  0  0
  -31.8660   38.6780   -2.3110 F   0  0  0  0  0  0  0  0  0  0  0  0
  -31.8210   40.7400   -4.1100 N   0  0  0  0  0  0  0  0  0  0  0  0
  -33.9980   42.3520  -11.0370 N   0  0  0  0  0  0  0  0  0  0  0  0
  -31.3540   43.1670  -11.2450 O   0  0  0  0  0  0  0  0  0  0  0  0
  -32.0290   40.6090  -11.1630 O   0  0  0  0  0  0  0  0  0  0  0  0
  -34.0515   43.2846   -8.6203 H   0  0  0  0  0  0  0  0  0  0  0  0
  -33.8067   43.3748   -6.1394 H   0  0  0  0  0  0  0  0  0  0  0  0
  -30.4690   40.6658   -6.3438 H   0  0  0  0  0  0  0  0  0  0  0  0
  -30.4604   40.8650   -8.7856 H   0  0  0  0  0  0  0  0  0  0  0  0
  -34.0499   44.2270   -2.7480 H   0  0  0  0  0  0  0  0  0  0  0  0
  -34.5087   46.6537   -2.9548 H   0  0  0  0  0  0  0  0  0  0  0  0
  -33.1439   48.9096   -3.2721 H   0  0  0  0  0  0  0  0  0  0  0  0
  -32.2446   48.9928   -4.8248 H   0  0  0  0  0  0  0  0  0  0  0  0
  -34.0062   48.6414   -4.8248 H   0  0  0  0  0  0  0  0  0  0  0  0
  -30.9889   47.0942   -5.4085 H   0  0  0  0  0  0  0  0  0  0  0  0
  -30.5535   44.6979   -5.2238 H   0  0  0  0  0  0  0  0  0  0  0  0
  -32.0929   42.6742   -1.5485 H   0  0  0  0  0  0  0  0  0  0  0  0
  -34.5558   42.4413  -10.1758 H   0  0  0  0  0  0  0  0  0  0  0  0
  -34.0800   43.2168  -11.5904 H   0  0  0  0  0  0  0  0  0  0  0  0
  1  2  1  0
  2  3  2  0
  3  4  1  0
  4  5  2  0
  5  6  1  0
  2  7  1  0
  6  7  2  0
  5  8  1  0
  8  9  1  0
  9 10  1  0
 10 11  2  0
 11 12  1  0
 12 13  2  0
 13 14  1  0
 13 15  1  0
 10 16  1  0
 15 16  2  0
  9 17  2  0
 17 18  1  0
 18 19  1  0
 19 20  1  0
 19 21  1  0
 19 22  1  0
  8 23  1  0
 18 23  2  0
  1 24  1  0
  1 25  2  0
  1 26  2  0
  3 27  1  0
  4 28  1  0
  6 29  1  0
  7 30  1  0
 11 31  1  0
 12 32  1  0
 14 33  1  0
 14 34  1  0
 14 35  1  0
 15 36  1  0
 16 37  1  0
 17 38  1  0
 24 39  1  0
 24 40  1  0
M  END
$$$$
