PDB_DB00452_81
     RDKit          3D

 88 91  0  0  0  0  0  0  0  0999 V2000
  -98.5730  -22.4630   77.4570 C   0  0  2  0  0  0  0  0  0  0  0  0
  -98.0300  -23.3770   76.5270 O   0  0  0  0  0  0  0  0  0  0  0  0
  -97.8760  -22.7340   78.7980 C   0  0  2  0  0  0  0  0  0  0  0  0
  -96.4580  -22.5490   78.6740 N   0  0  0  0  0  0  0  0  0  0  0  0
  -98.1660  -24.0990   79.2520 C   0  0  1  0  0  0  0  0  0  0  0  0
  -97.5410  -24.2600   80.5050 O   0  0  0  0  0  0  0  0  0  0  0  0
  -99.5780  -24.2860   79.3710 C   0  0  2  0  0  0  0  0  0  0  0  0
  -99.8840  -25.6220   79.7040 O   0  0  0  0  0  0  0  0  0  0  0  0
 -100.2630  -23.9940   78.0680 C   0  0  2  0  0  0  0  0  0  0  0  0
  -99.9440  -22.6070   77.5880 O   0  0  0  0  0  0  0  0  0  0  0  0
 -101.7410  -24.2890   78.1070 C   0  0  0  0  0  0  0  0  0  0  0  0
  -96.3620  -22.2510   72.7370 C   0  0  1  0  0  0  0  0  0  0  0  0
  -96.1580  -21.2670   71.6790 N   0  0  0  0  0  0  0  0  0  0  0  0
  -95.6460  -21.8350   74.0240 C   0  0  1  0  0  0  0  0  0  0  0  0
  -96.0990  -22.6370   75.2620 C   0  0  1  0  0  0  0  0  0  0  0  0
  -95.5030  -22.1400   76.4440 O   0  0  0  0  0  0  0  0  0  0  0  0
  -97.5890  -22.6890   75.3690 C   0  0  1  0  0  0  0  0  0  0  0  0
  -98.1630  -23.3510   74.1230 C   0  0  1  0  0  0  0  0  0  0  0  0
  -99.5680  -23.5670   74.2960 N   0  0  0  0  0  0  0  0  0  0  0  0
  -97.8420  -22.4890   72.8940 C   0  0  0  0  0  0  0  0  0  0  0  0
  -95.0900  -20.7840   76.2980 C   0  0  1  0  0  0  0  0  0  0  0  0
  -95.4220  -19.9450   77.4820 C   0  0  1  0  0  0  0  0  0  0  0  0
  -94.1770  -19.4270   77.9560 C   0  0  1  0  0  0  0  0  0  0  0  0
  -93.1410  -20.2780   77.3230 C   0  0  2  0  0  0  0  0  0  0  0  0
  -93.6710  -20.6400   76.0950 O   0  0  0  0  0  0  0  0  0  0  0  0
  -92.8020  -21.5190   78.1170 C   0  0  0  0  0  0  0  0  0  0  0  0
  -93.7630  -14.7170   79.2900 C   0  0  1  0  0  0  0  0  0  0  0  0
  -94.2900  -14.9940   77.9470 C   0  0  1  0  0  0  0  0  0  0  0  0
  -95.2760  -15.9910   78.0230 C   0  0  2  0  0  0  0  0  0  0  0  0
  -94.7150  -17.2670   78.5750 C   0  0  1  0  0  0  0  0  0  0  0  0
  -94.0820  -18.0620   77.5810 O   0  0  0  0  0  0  0  0  0  0  0  0
  -93.0910  -15.9390   79.8770 C   0  0  1  0  0  0  0  0  0  0  0  0
  -93.8490  -17.1070   79.7890 O   0  0  0  0  0  0  0  0  0  0  0  0
  -91.7360  -16.1750   79.2320 C   0  0  0  0  0  0  0  0  0  0  0  0
 -102.3870  -24.3740   79.4220 N   0  0  0  0  0  0  0  0  0  0  0  0
  -96.2550  -18.9590   77.0130 O   0  0  0  0  0  0  0  0  0  0  0  0
  -94.8880  -13.7930   77.4420 O   0  0  0  0  0  0  0  0  0  0  0  0
  -92.8300  -13.6640   79.2460 O   0  0  0  0  0  0  0  0  0  0  0  0
  -93.7550  -22.0100   78.9560 O   0  0  0  0  0  0  0  0  0  0  0  0
  -94.3160  -22.0280   73.8280 O   0  0  0  0  0  0  0  0  0  0  0  0
  -91.1000  -17.4450   79.4860 N   0  0  0  0  0  0  0  0  0  0  0  0
  -95.7170  -16.2410   76.6560 N   0  0  0  0  0  0  0  0  0  0  0  0
  -98.4044  -21.4319   77.1129 H   0  0  0  0  0  0  0  0  0  0  0  0
  -98.2604  -22.0200   79.5413 H   0  0  0  0  0  0  0  0  0  0  0  0
  -96.0356  -22.4939   79.6118 H   0  0  0  0  0  0  0  0  0  0  0  0
  -96.0516  -23.3441   78.1606 H   0  0  0  0  0  0  0  0  0  0  0  0
  -97.7899  -24.8419   78.5332 H   0  0  0  0  0  0  0  0  0  0  0  0
  -98.1982  -24.0907   81.2258 H   0  0  0  0  0  0  0  0  0  0  0  0
  -99.9244  -23.6011   80.1590 H   0  0  0  0  0  0  0  0  0  0  0  0
  -99.9064  -25.7198   80.6889 H   0  0  0  0  0  0  0  0  0  0  0  0
  -99.8567  -24.6894   77.3187 H   0  0  0  0  0  0  0  0  0  0  0  0
 -102.2494  -23.4935   77.5424 H   0  0  0  0  0  0  0  0  0  0  0  0
 -101.8327  -25.3016   77.6872 H   0  0  0  0  0  0  0  0  0  0  0  0
  -95.9045  -23.2145   72.4680 H   0  0  0  0  0  0  0  0  0  0  0  0
  -95.9671  -20.3460   72.0988 H   0  0  0  0  0  0  0  0  0  0  0  0
  -95.3580  -21.5509   71.0957 H   0  0  0  0  0  0  0  0  0  0  0  0
  -95.8915  -20.7828   74.2302 H   0  0  0  0  0  0  0  0  0  0  0  0
  -95.7503  -23.6721   75.1318 H   0  0  0  0  0  0  0  0  0  0  0  0
  -97.9503  -21.6535   75.4539 H   0  0  0  0  0  0  0  0  0  0  0  0
  -97.7021  -24.3367   73.9618 H   0  0  0  0  0  0  0  0  0  0  0  0
  -99.7889  -23.6010   75.3015 H   0  0  0  0  0  0  0  0  0  0  0  0
 -100.0906  -22.7965   73.8555 H   0  0  0  0  0  0  0  0  0  0  0  0
  -98.2160  -23.0006   71.9949 H   0  0  0  0  0  0  0  0  0  0  0  0
  -98.3288  -21.5120   73.0300 H   0  0  0  0  0  0  0  0  0  0  0  0
  -95.6440  -20.4460   75.4098 H   0  0  0  0  0  0  0  0  0  0  0  0
  -95.9214  -20.4743   78.3069 H   0  0  0  0  0  0  0  0  0  0  0  0
  -94.0644  -19.4545   79.0499 H   0  0  0  0  0  0  0  0  0  0  0  0
  -92.1969  -19.7182   77.2504 H   0  0  0  0  0  0  0  0  0  0  0  0
  -92.5563  -22.3135   77.3970 H   0  0  0  0  0  0  0  0  0  0  0  0
  -91.9789  -21.2113   78.7786 H   0  0  0  0  0  0  0  0  0  0  0  0
  -94.6155  -14.4344   79.9252 H   0  0  0  0  0  0  0  0  0  0  0  0
  -93.4767  -15.3323   77.2882 H   0  0  0  0  0  0  0  0  0  0  0  0
  -96.0931  -15.6609   78.6814 H   0  0  0  0  0  0  0  0  0  0  0  0
  -95.6026  -17.8125   78.9281 H   0  0  0  0  0  0  0  0  0  0  0  0
  -92.9743  -15.7130   80.9472 H   0  0  0  0  0  0  0  0  0  0  0  0
  -91.8661  -16.0812   78.1438 H   0  0  0  0  0  0  0  0  0  0  0  0
  -91.0699  -15.4269   79.6867 H   0  0  0  0  0  0  0  0  0  0  0  0
 -101.6754  -24.2804   80.1608 H   0  0  0  0  0  0  0  0  0  0  0  0
 -103.0792  -23.6168   79.5141 H   0  0  0  0  0  0  0  0  0  0  0  0
  -96.6609  -18.4786   77.7776 H   0  0  0  0  0  0  0  0  0  0  0  0
  -95.1722  -13.2222   78.1993 H   0  0  0  0  0  0  0  0  0  0  0  0
  -92.5919  -13.3953   80.1686 H   0  0  0  0  0  0  0  0  0  0  0  0
  -93.4746  -21.8656   79.8944 H   0  0  0  0  0  0  0  0  0  0  0  0
  -93.8595  -22.0942   74.7040 H   0  0  0  0  0  0  0  0  0  0  0  0
  -91.0252  -17.5943   80.5024 H   0  0  0  0  0  0  0  0  0  0  0  0
  -91.6624  -18.2002   79.0685 H   0  0  0  0  0  0  0  0  0  0  0  0
  -96.6129  -16.7489   76.6717 H   0  0  0  0  0  0  0  0  0  0  0  0
  -95.8396  -15.3438   76.1653 H   0  0  0  0  0  0  0  0  0  0  0  0
  2  1  1  0
  3  1  1  0
  4  3  1  0
  5  3  1  0
  6  5  1  0
  7  5  1  0
  8  7  1  0
  9  7  1  0
 10  9  1  0
 10  1  1  0
 11  9  1  0
 13 12  1  0
 14 12  1  0
 15 14  1  0
 16 15  1  0
 17 15  1  0
 17  2  1  0
 18 17  1  0
 19 18  1  0
 20 18  1  0
 20 12  1  0
 21 16  1  0
 22 21  1  0
 23 22  1  0
 24 23  1  0
 25 21  1  0
 25 24  1  0
 26 24  1  0
 28 27  1  0
 29 28  1  0
 30 29  1  0
 31 30  1  0
 31 23  1  0
 32 27  1  0
 33 30  1  0
 33 32  1  0
 34 32  1  0
 35 11  1  0
 36 22  1  0
 37 28  1  0
 38 27  1  0
 39 26  1  0
 40 14  1  0
 41 34  1  0
 42 29  1  0
  1 43  1  6
  3 44  1  1
  4 45  1  0
  4 46  1  0
  5 47  1  6
  6 48  1  0
  7 49  1  1
  8 50  1  0
  9 51  1  6
 11 52  1  0
 11 53  1  0
 12 54  1  6
 13 55  1  0
 13 56  1  0
 14 57  1  1
 15 58  1  6
 17 59  1  1
 18 60  1  6
 19 61  1  0
 19 62  1  0
 20 63  1  0
 20 64  1  0
 21 65  1  6
 22 66  1  1
 23 67  1  1
 24 68  1  6
 26 69  1  0
 26 70  1  0
 27 71  1  1
 28 72  1  6
 29 73  1  1
 30 74  1  1
 32 75  1  1
 34 76  1  0
 34 77  1  0
 35 78  1  0
 35 79  1  0
 36 80  1  0
 37 81  1  0
 38 82  1  0
 39 83  1  0
 40 84  1  0
 41 85  1  0
 41 86  1  0
 42 87  1  0
 42 88  1  0
M  END
$$$$
