PDB_DB00685_97
     RDKit          3D

 45 49  0  0  0  0  0  0  0  0999 V2000
  -74.8500   -3.6600   22.0400 C   0  0  0  0  0  0  0  0  0  0  0  0
  -73.6200   -3.9530   21.4610 C   0  0  0  0  0  0  0  0  0  0  0  0
  -72.4450   -3.4960   22.0450 C   0  0  0  0  0  0  0  0  0  0  0  0
  -71.2870   -3.7600   21.5000 F   0  0  0  0  0  0  0  0  0  0  0  0
  -72.5060   -2.7570   23.2230 C   0  0  0  0  0  0  0  0  0  0  0  0
  -73.7340   -2.4730   23.7990 C   0  0  0  0  0  0  0  0  0  0  0  0
  -73.7470   -1.7490   24.9380 F   0  0  0  0  0  0  0  0  0  0  0  0
  -74.9300   -2.9220   23.2100 C   0  0  0  0  0  0  0  0  0  0  0  0
  -76.1700   -2.6530   23.7280 N   0  0  0  0  0  0  0  0  0  0  0  0
  -76.9210   -3.7270   24.0330 C   0  0  0  0  0  0  0  0  0  0  0  0
  -76.4270   -4.9670   23.8450 N   0  0  0  0  0  0  0  0  0  0  0  0
  -77.1410   -6.0730   24.1160 C   0  0  0  0  0  0  0  0  0  0  0  0
  -76.5780   -7.3980   23.9070 N   0  0  0  0  0  0  0  0  0  0  0  0
  -75.2870   -7.1170   23.3320 C   0  0  0  0  0  0  0  0  0  0  0  0
  -74.7010   -8.4660   23.0850 C   0  0  1  0  0  0  0  0  0  0  0  0
  -74.7140   -9.3930   24.2560 C   0  0  0  0  0  0  0  0  0  0  0  0
  -73.7150  -10.4990   24.3080 N   0  0  0  0  0  0  0  0  0  0  0  0
  -75.7860   -9.4770   23.2150 C   0  0  1  0  0  0  0  0  0  0  0  0
  -77.0330   -8.7130   23.4840 C   0  0  0  0  0  0  0  0  0  0  0  0
  -78.4000   -5.9480   24.6350 C   0  0  0  0  0  0  0  0  0  0  0  0
  -78.9440   -4.6830   24.8560 C   0  0  0  0  0  0  0  0  0  0  0  0
  -78.2000   -3.5540   24.5540 C   0  0  0  0  0  0  0  0  0  0  0  0
  -78.7160   -2.2690   24.7630 C   0  0  0  0  0  0  0  0  0  0  0  0
  -77.9090   -1.1790   24.4230 C   0  0  0  0  0  0  0  0  0  0  0  0
  -76.6320   -1.3970   23.8990 C   0  0  0  0  0  0  0  0  0  0  0  0
  -78.3730    0.2340   24.6160 C   0  0  0  0  0  0  0  0  0  0  0  0
  -79.5380    0.4630   25.0140 O   0  0  0  0  0  0  0  0  0  0  0  0
  -77.5620    1.1620   24.4060 O   0  0  0  0  0  0  0  0  0  0  0  0
  -79.8550   -2.1480   25.2190 O   0  0  0  0  0  0  0  0  0  0  0  0
  -79.0790   -7.0570   24.9010 F   0  0  0  0  0  0  0  0  0  0  0  0
  -75.7732   -4.0195   21.5620 H   0  0  0  0  0  0  0  0  0  0  0  0
  -73.5772   -4.5487   20.5373 H   0  0  0  0  0  0  0  0  0  0  0  0
  -71.5800   -2.3986   23.6964 H   0  0  0  0  0  0  0  0  0  0  0  0
  -75.3916   -6.5577   22.3906 H   0  0  0  0  0  0  0  0  0  0  0  0
  -74.6582   -6.4955   23.9864 H   0  0  0  0  0  0  0  0  0  0  0  0
  -73.9160   -8.1915   22.3649 H   0  0  0  0  0  0  0  0  0  0  0  0
  -74.6855   -9.2592   25.3475 H   0  0  0  0  0  0  0  0  0  0  0  0
  -73.5077  -10.7285   25.2905 H   0  0  0  0  0  0  0  0  0  0  0  0
  -74.0977  -11.3299   23.8347 H   0  0  0  0  0  0  0  0  0  0  0  0
  -76.2037  -10.3373   22.6715 H   0  0  0  0  0  0  0  0  0  0  0  0
  -77.6189   -9.1952   24.2804 H   0  0  0  0  0  0  0  0  0  0  0  0
  -77.6878   -8.6622   22.6016 H   0  0  0  0  0  0  0  0  0  0  0  0
  -79.9589   -4.5821   25.2681 H   0  0  0  0  0  0  0  0  0  0  0  0
  -75.9999   -0.5397   23.6244 H   0  0  0  0  0  0  0  0  0  0  0  0
  -79.8432    1.3962   25.1411 H   0  0  0  0  0  0  0  0  0  0  0  0
  1  2  2  0
  2  3  1  0
  3  4  1  0
  3  5  2  0
  5  6  1  0
  6  7  1  0
  1  8  1  0
  6  8  2  0
  8  9  1  0
  9 10  1  0
 10 11  2  0
 11 12  1  0
 12 13  1  0
 13 14  1  0
 14 15  1  0
 15 16  1  0
 16 17  1  0
 15 18  1  0
 16 18  1  0
 13 19  1  0
 18 19  1  0
 12 20  2  0
 20 21  1  0
 10 22  1  0
 21 22  2  0
 22 23  1  0
 23 24  1  0
  9 25  1  0
 24 25  2  0
 24 26  1  0
 26 27  1  0
 26 28  2  0
 23 29  2  0
 20 30  1  0
  1 31  1  0
  2 32  1  0
  5 33  1  0
 14 34  1  0
 14 35  1  0
 15 36  1  6
 16 37  1  0
 17 38  1  0
 17 39  1  0
 18 40  1  6
 19 41  1  0
 19 42  1  0
 21 43  1  0
 25 44  1  0
 27 45  1  0
M  END
$$$$
