PDB_DB00619_91
     RDKit          3D

 68 72  0  0  0  0  0  0  0  0999 V2000
   62.3160   23.0770   42.3350 C   0  0  0  0  0  0  0  0  0  0  0  0
   61.7440   22.4080   43.4540 C   0  0  0  0  0  0  0  0  0  0  0  0
   61.7840   21.0080   43.5850 C   0  0  0  0  0  0  0  0  0  0  0  0
   62.4370   20.2940   42.5920 C   0  0  0  0  0  0  0  0  0  0  0  0
   62.9960   20.8910   41.4870 N   0  0  0  0  0  0  0  0  0  0  0  0
   62.9100   22.2540   41.3890 C   0  0  0  0  0  0  0  0  0  0  0  0
   61.1990   20.2660   44.7790 C   0  0  0  0  0  0  0  0  0  0  0  0
   60.6640   20.9070   45.8230 C   0  0  0  0  0  0  0  0  0  0  0  0
   60.2400   20.0770   46.8730 C   0  0  0  0  0  0  0  0  0  0  0  0
   60.3430   18.7380   46.7950 N   0  0  0  0  0  0  0  0  0  0  0  0
   60.9040   18.1770   45.7640 C   0  0  0  0  0  0  0  0  0  0  0  0
   61.3320   18.9100   44.7400 N   0  0  0  0  0  0  0  0  0  0  0  0
   61.0630   16.8080   45.5810 N   0  0  0  0  0  0  0  0  0  0  0  0
   60.8390   15.8570   46.5890 C   0  0  0  0  0  0  0  0  0  0  0  0
   61.8030   15.5150   47.5610 C   0  0  0  0  0  0  0  0  0  0  0  0
   61.4850   14.5420   48.4750 C   0  0  0  0  0  0  0  0  0  0  0  0
   60.2630   13.8590   48.4840 C   0  0  0  0  0  0  0  0  0  0  0  0
   59.3370   14.1380   47.4770 C   0  0  0  0  0  0  0  0  0  0  0  0
   59.6430   15.1370   46.5540 C   0  0  0  0  0  0  0  0  0  0  0  0
   58.1060   13.3940   47.5150 N   0  0  0  0  0  0  0  0  0  0  0  0
   57.2180   13.4310   46.5110 C   0  0  0  0  0  0  0  0  0  0  0  0
   56.1740   12.4180   46.5170 C   0  0  0  0  0  0  0  0  0  0  0  0
   55.4260   12.2230   45.3490 C   0  0  0  0  0  0  0  0  0  0  0  0
   54.3920   11.2570   45.3680 C   0  0  0  0  0  0  0  0  0  0  0  0
   54.1040   10.5400   46.5240 C   0  0  0  0  0  0  0  0  0  0  0  0
   54.8160   10.7580   47.6950 C   0  0  0  0  0  0  0  0  0  0  0  0
   55.8550   11.7280   47.7210 C   0  0  0  0  0  0  0  0  0  0  0  0
   52.9730    9.5730   46.4640 C   0  0  0  0  0  0  0  0  0  0  0  0
   52.0760    9.5570   47.6140 N   0  0  0  0  0  0  0  0  0  0  0  0
   51.4340   10.8810   47.8620 C   0  0  0  0  0  0  0  0  0  0  0  0
   50.3770   10.8150   49.0660 C   0  0  0  0  0  0  0  0  0  0  0  0
   49.4820    9.6420   48.8620 N   0  0  0  0  0  0  0  0  0  0  0  0
   48.5730    9.5270   50.0010 C   0  0  0  0  0  0  0  0  0  0  0  0
   50.2190    8.4270   48.6860 C   0  0  0  0  0  0  0  0  0  0  0  0
   51.0690    8.5000   47.3820 C   0  0  0  0  0  0  0  0  0  0  0  0
   57.1480   14.2650   45.6160 O   0  0  0  0  0  0  0  0  0  0  0  0
   63.1340   16.2200   47.6690 C   0  0  0  0  0  0  0  0  0  0  0  0
   62.2889   24.1714   42.2278 H   0  0  0  0  0  0  0  0  0  0  0  0
   61.2562   23.0037   44.2396 H   0  0  0  0  0  0  0  0  0  0  0  0
   62.5111   19.2011   42.6928 H   0  0  0  0  0  0  0  0  0  0  0  0
   63.3426   22.7304   40.4969 H   0  0  0  0  0  0  0  0  0  0  0  0
   60.5636   22.0019   45.8568 H   0  0  0  0  0  0  0  0  0  0  0  0
   59.8141   20.5317   47.7796 H   0  0  0  0  0  0  0  0  0  0  0  0
   61.3618   16.4728   44.6540 H   0  0  0  0  0  0  0  0  0  0  0  0
   62.2305   14.2849   49.2419 H   0  0  0  0  0  0  0  0  0  0  0  0
   60.0375   13.1195   49.2665 H   0  0  0  0  0  0  0  0  0  0  0  0
   58.9118   15.3677   45.7652 H   0  0  0  0  0  0  0  0  0  0  0  0
   57.9001   12.8138   48.3408 H   0  0  0  0  0  0  0  0  0  0  0  0
   55.6369   12.8058   44.4402 H   0  0  0  0  0  0  0  0  0  0  0  0
   53.8076   11.0706   44.4549 H   0  0  0  0  0  0  0  0  0  0  0  0
   54.5770   10.1817   48.6009 H   0  0  0  0  0  0  0  0  0  0  0  0
   56.4011   11.9410   48.6518 H   0  0  0  0  0  0  0  0  0  0  0  0
   52.3730    9.8136   45.5740 H   0  0  0  0  0  0  0  0  0  0  0  0
   53.4391    8.5769   46.4411 H   0  0  0  0  0  0  0  0  0  0  0  0
   52.2149   11.6136   48.1137 H   0  0  0  0  0  0  0  0  0  0  0  0
   50.8946   11.1753   46.9496 H   0  0  0  0  0  0  0  0  0  0  0  0
   50.9122   10.7088   50.0211 H   0  0  0  0  0  0  0  0  0  0  0  0
   49.7800   11.7386   49.0874 H   0  0  0  0  0  0  0  0  0  0  0  0
   49.1467    9.5996   50.9367 H   0  0  0  0  0  0  0  0  0  0  0  0
   47.8314   10.3385   49.9617 H   0  0  0  0  0  0  0  0  0  0  0  0
   48.0569    8.5564   49.9617 H   0  0  0  0  0  0  0  0  0  0  0  0
   50.8866    8.2784   49.5475 H   0  0  0  0  0  0  0  0  0  0  0  0
   49.5138    7.5862   48.6094 H   0  0  0  0  0  0  0  0  0  0  0  0
   50.4318    8.7602   46.5239 H   0  0  0  0  0  0  0  0  0  0  0  0
   51.5426    7.5338   47.1538 H   0  0  0  0  0  0  0  0  0  0  0  0
   63.3916   16.3565   48.7297 H   0  0  0  0  0  0  0  0  0  0  0  0
   63.9104   15.6149   47.1780 H   0  0  0  0  0  0  0  0  0  0  0  0
   63.0696   17.2022   47.1780 H   0  0  0  0  0  0  0  0  0  0  0  0
  1  2  2  0
  2  3  1  0
  3  4  2  0
  4  5  1  0
  1  6  1  0
  5  6  2  0
  3  7  1  0
  7  8  2  0
  8  9  1  0
  9 10  2  0
 10 11  1  0
  7 12  1  0
 11 12  2  0
 11 13  1  0
 13 14  1  0
 14 15  2  0
 15 16  1  0
 16 17  2  0
 17 18  1  0
 14 19  1  0
 18 19  2  0
 18 20  1  0
 20 21  1  0
 21 22  1  0
 22 23  2  0
 23 24  1  0
 24 25  2  0
 25 26  1  0
 22 27  1  0
 26 27  2  0
 25 28  1  0
 28 29  1  0
 29 30  1  0
 30 31  1  0
 31 32  1  0
 32 33  1  0
 32 34  1  0
 29 35  1  0
 34 35  1  0
 21 36  2  0
 15 37  1  0
  1 38  1  0
  2 39  1  0
  4 40  1  0
  6 41  1  0
  8 42  1  0
  9 43  1  0
 13 44  1  0
 16 45  1  0
 17 46  1  0
 19 47  1  0
 20 48  1  0
 23 49  1  0
 24 50  1  0
 26 51  1  0
 27 52  1  0
 28 53  1  0
 28 54  1  0
 30 55  1  0
 30 56  1  0
 31 57  1  0
 31 58  1  0
 33 59  1  0
 33 60  1  0
 33 61  1  0
 34 62  1  0
 34 63  1  0
 35 64  1  0
 35 65  1  0
 37 66  1  0
 37 67  1  0
 37 68  1  0
M  END
$$$$
