PDB_DB00452_79
     RDKit          3D

 88 91  0  0  0  0  0  0  0  0999 V2000
  -21.8850  -95.4550   20.4960 C   0  0  2  0  0  0  0  0  0  0  0  0
  -23.1360  -96.0430   20.7810 O   0  0  0  0  0  0  0  0  0  0  0  0
  -22.1560  -94.0850   19.8640 C   0  0  2  0  0  0  0  0  0  0  0  0
  -22.8900  -93.2700   20.7760 N   0  0  0  0  0  0  0  0  0  0  0  0
  -22.8690  -94.1070   18.5780 C   0  0  1  0  0  0  0  0  0  0  0  0
  -22.3280  -93.0570   17.8150 O   0  0  0  0  0  0  0  0  0  0  0  0
  -22.6470  -95.3590   17.9390 C   0  0  2  0  0  0  0  0  0  0  0  0
  -23.6050  -96.3190   18.3500 O   0  0  0  0  0  0  0  0  0  0  0  0
  -21.2680  -95.8770   18.2110 C   0  0  2  0  0  0  0  0  0  0  0  0
  -21.0490  -96.2030   19.6690 O   0  0  0  0  0  0  0  0  0  0  0  0
  -20.3190  -94.8720   17.5900 C   0  0  0  0  0  0  0  0  0  0  0  0
  -23.5320  -99.6600   23.0090 C   0  0  1  0  0  0  0  0  0  0  0  0
  -22.9780 -100.9230   23.4360 N   0  0  0  0  0  0  0  0  0  0  0  0
  -22.6470  -98.5200   23.4930 C   0  0  1  0  0  0  0  0  0  0  0  0
  -22.9830  -97.1700   22.8640 C   0  0  1  0  0  0  0  0  0  0  0  0
  -22.1340  -96.1790   23.4160 O   0  0  0  0  0  0  0  0  0  0  0  0
  -22.8720  -97.2790   21.3990 C   0  0  1  0  0  0  0  0  0  0  0  0
  -23.8280  -98.3200   20.8450 C   0  0  1  0  0  0  0  0  0  0  0  0
  -23.5590  -98.3770   19.4440 N   0  0  0  0  0  0  0  0  0  0  0  0
  -23.7320  -99.7070   21.5170 C   0  0  0  0  0  0  0  0  0  0  0  0
  -22.9620  -95.1640   23.9790 C   0  0  1  0  0  0  0  0  0  0  0  0
  -22.6070  -94.7950   25.3780 C   0  0  1  0  0  0  0  0  0  0  0  0
  -23.2440  -93.5160   25.5570 C   0  0  1  0  0  0  0  0  0  0  0  0
  -23.8030  -93.2160   24.2190 C   0  0  2  0  0  0  0  0  0  0  0  0
  -23.0370  -93.9150   23.2830 O   0  0  0  0  0  0  0  0  0  0  0  0
  -23.7870  -91.7270   23.9760 C   0  0  0  0  0  0  0  0  0  0  0  0
  -25.5720  -90.6050   28.8540 C   0  0  1  0  0  0  0  0  0  0  0  0
  -24.8620  -91.6470   29.6280 C   0  0  1  0  0  0  0  0  0  0  0  0
  -24.2080  -92.6780   28.9110 C   0  0  2  0  0  0  0  0  0  0  0  0
  -23.7660  -92.4540   27.4910 C   0  0  1  0  0  0  0  0  0  0  0  0
  -24.2100  -93.4840   26.6070 O   0  0  0  0  0  0  0  0  0  0  0  0
  -25.2110  -90.4470   27.3860 C   0  0  1  0  0  0  0  0  0  0  0  0
  -24.0460  -91.0880   26.9550 O   0  0  0  0  0  0  0  0  0  0  0  0
  -26.3220  -90.9100   26.4560 C   0  0  0  0  0  0  0  0  0  0  0  0
  -18.9270  -95.1920   17.2530 N   0  0  0  0  0  0  0  0  0  0  0  0
  -23.1170  -95.8060   26.1590 O   0  0  0  0  0  0  0  0  0  0  0  0
  -23.8020  -91.0480   30.3580 O   0  0  0  0  0  0  0  0  0  0  0  0
  -26.9660  -90.7900   28.9810 O   0  0  0  0  0  0  0  0  0  0  0  0
  -22.6180  -91.0550   24.1730 O   0  0  0  0  0  0  0  0  0  0  0  0
  -22.7980  -98.3580   24.8200 O   0  0  0  0  0  0  0  0  0  0  0  0
  -27.2660  -91.9550   26.8190 N   0  0  0  0  0  0  0  0  0  0  0  0
  -25.1590  -93.7740   28.9520 N   0  0  0  0  0  0  0  0  0  0  0  0
  -21.3368  -95.3845   21.4470 H   0  0  0  0  0  0  0  0  0  0  0  0
  -21.1579  -93.6757   19.6490 H   0  0  0  0  0  0  0  0  0  0  0  0
  -22.6512  -93.5352   21.7422 H   0  0  0  0  0  0  0  0  0  0  0  0
  -22.6495  -92.2804   20.6222 H   0  0  0  0  0  0  0  0  0  0  0  0
  -23.9548  -93.9819   18.7020 H   0  0  0  0  0  0  0  0  0  0  0  0
  -21.9691  -92.3604   18.4200 H   0  0  0  0  0  0  0  0  0  0  0  0
  -22.7511  -95.1904   16.8570 H   0  0  0  0  0  0  0  0  0  0  0  0
  -23.6369  -96.3509   19.3390 H   0  0  0  0  0  0  0  0  0  0  0  0
  -21.0834  -96.8577   17.7483 H   0  0  0  0  0  0  0  0  0  0  0  0
  -20.7918  -94.5483   16.6510 H   0  0  0  0  0  0  0  0  0  0  0  0
  -20.1876  -94.1544   18.4133 H   0  0  0  0  0  0  0  0  0  0  0  0
  -24.5195  -99.4736   23.4562 H   0  0  0  0  0  0  0  0  0  0  0  0
  -22.9616 -100.9603   24.4652 H   0  0  0  0  0  0  0  0  0  0  0  0
  -23.5587 -101.6927   23.0737 H   0  0  0  0  0  0  0  0  0  0  0  0
  -21.6244  -98.8062   23.2060 H   0  0  0  0  0  0  0  0  0  0  0  0
  -24.0177  -96.8707   23.0870 H   0  0  0  0  0  0  0  0  0  0  0  0
  -21.8394  -97.5876   21.1790 H   0  0  0  0  0  0  0  0  0  0  0  0
  -24.8653  -98.0226   21.0585 H   0  0  0  0  0  0  0  0  0  0  0  0
  -22.5621  -98.5882   19.2941 H   0  0  0  0  0  0  0  0  0  0  0  0
  -24.1348  -99.1147   19.0136 H   0  0  0  0  0  0  0  0  0  0  0  0
  -24.6635 -100.2547   21.3113 H   0  0  0  0  0  0  0  0  0  0  0  0
  -22.8440 -100.2006   21.0954 H   0  0  0  0  0  0  0  0  0  0  0  0
  -23.9308  -95.6797   23.9056 H   0  0  0  0  0  0  0  0  0  0  0  0
  -21.5402  -94.6991   25.6286 H   0  0  0  0  0  0  0  0  0  0  0  0
  -22.5342  -92.7469   25.8958 H   0  0  0  0  0  0  0  0  0  0  0  0
  -24.8528  -93.5343   24.1377 H   0  0  0  0  0  0  0  0  0  0  0  0
  -24.0845  -91.5641   22.9296 H   0  0  0  0  0  0  0  0  0  0  0  0
  -24.4676  -91.3191   24.7379 H   0  0  0  0  0  0  0  0  0  0  0  0
  -25.2250  -89.6648   29.3074 H   0  0  0  0  0  0  0  0  0  0  0  0
  -25.6822  -92.0951   30.2080 H   0  0  0  0  0  0  0  0  0  0  0  0
  -23.2317  -92.8228   29.3967 H   0  0  0  0  0  0  0  0  0  0  0  0
  -22.6687  -92.5153   27.5376 H   0  0  0  0  0  0  0  0  0  0  0  0
  -25.0426  -89.3615   27.3283 H   0  0  0  0  0  0  0  0  0  0  0  0
  -26.9259  -90.0175   26.2350 H   0  0  0  0  0  0  0  0  0  0  0  0
  -25.7512  -91.3948   25.6503 H   0  0  0  0  0  0  0  0  0  0  0  0
  -18.3840  -95.3168   18.1193 H   0  0  0  0  0  0  0  0  0  0  0  0
  -18.8984  -96.0615   16.7016 H   0  0  0  0  0  0  0  0  0  0  0  0
  -23.0007  -95.5754   27.1147 H   0  0  0  0  0  0  0  0  0  0  0  0
  -23.9735  -91.1449   31.3282 H   0  0  0  0  0  0  0  0  0  0  0  0
  -27.2086  -90.8222   29.9403 H   0  0  0  0  0  0  0  0  0  0  0  0
  -22.4519  -90.9595   25.1443 H   0  0  0  0  0  0  0  0  0  0  0  0
  -22.2073  -98.9917   25.2991 H   0  0  0  0  0  0  0  0  0  0  0  0
  -27.3264  -92.0218   27.8451 H   0  0  0  0  0  0  0  0  0  0  0  0
  -28.1942  -91.7279   26.4345 H   0  0  0  0  0  0  0  0  0  0  0  0
  -25.3659  -94.0125   29.9324 H   0  0  0  0  0  0  0  0  0  0  0  0
  -26.0281  -93.4924   28.4763 H   0  0  0  0  0  0  0  0  0  0  0  0
  2  1  1  0
  3  1  1  0
  4  3  1  0
  5  3  1  0
  6  5  1  0
  7  5  1  0
  8  7  1  0
  9  7  1  0
 10  1  1  0
 10  9  1  0
 11  9  1  0
 13 12  1  0
 14 12  1  0
 15 14  1  0
 16 15  1  0
 17  2  1  0
 17 15  1  0
 18 17  1  0
 19 18  1  0
 20 18  1  0
 20 12  1  0
 21 16  1  0
 22 21  1  0
 23 22  1  0
 24 23  1  0
 25 24  1  0
 25 21  1  0
 26 24  1  0
 28 27  1  0
 29 28  1  0
 30 29  1  0
 31 23  1  0
 31 30  1  0
 32 27  1  0
 33 32  1  0
 33 30  1  0
 34 32  1  0
 35 11  1  0
 36 22  1  0
 37 28  1  0
 38 27  1  0
 39 26  1  0
 40 14  1  0
 41 34  1  0
 42 29  1  0
  1 43  1  1
  3 44  1  6
  4 45  1  0
  4 46  1  0
  5 47  1  1
  6 48  1  0
  7 49  1  6
  8 50  1  0
  9 51  1  6
 11 52  1  0
 11 53  1  0
 12 54  1  1
 13 55  1  0
 13 56  1  0
 14 57  1  1
 15 58  1  6
 17 59  1  1
 18 60  1  6
 19 61  1  0
 19 62  1  0
 20 63  1  0
 20 64  1  0
 21 65  1  1
 22 66  1  6
 23 67  1  1
 24 68  1  1
 26 69  1  0
 26 70  1  0
 27 71  1  1
 28 72  1  1
 29 73  1  1
 30 74  1  1
 32 75  1  1
 34 76  1  0
 34 77  1  0
 35 78  1  0
 35 79  1  0
 36 80  1  0
 37 81  1  0
 38 82  1  0
 39 83  1  0
 40 84  1  0
 41 85  1  0
 41 86  1  0
 42 87  1  0
 42 88  1  0
M  END
$$$$
