PDB_DB08906_98
     RDKit          3D

 66 70  0  0  0  0  0  0  0  0999 V2000
   32.8640   -5.8400  -44.9400 C   0  0  0  0  0  0  0  0  0  0  0  0
   32.5710   -4.5570  -44.1980 C   0  0  2  0  0  0  0  0  0  0  0  0
   33.6140   -4.3690  -43.1180 C   0  0  0  0  0  0  0  0  0  0  0  0
   32.7740   -4.3710  -41.8610 C   0  0  1  0  0  0  0  0  0  0  0  0
   33.4380   -3.9070  -40.5950 C   0  0  2  0  0  0  0  0  0  0  0  0
   34.5760   -4.8510  -40.2930 C   0  0  0  0  0  0  0  0  0  0  0  0
   35.2790   -4.3870  -39.0410 C   0  0  2  0  0  0  0  0  0  0  0  0
   36.2610   -5.2760  -38.7380 F   0  0  0  0  0  0  0  0  0  0  0  0
   34.3030   -4.2290  -37.9240 C   0  0  0  0  0  0  0  0  0  0  0  0
   34.5170   -4.8870  -36.7840 C   0  0  0  0  0  0  0  0  0  0  0  0
   33.5590   -4.7300  -35.6790 C   0  0  0  0  0  0  0  0  0  0  0  0
   33.7720   -5.2690  -34.6070 O   0  0  0  0  0  0  0  0  0  0  0  0
   32.3490   -3.9170  -35.8680 C   0  0  0  0  0  0  0  0  0  0  0  0
   32.1980   -3.3050  -37.0420 C   0  0  0  0  0  0  0  0  0  0  0  0
   33.1350   -3.3420  -38.1850 C   0  0  1  0  0  0  0  0  0  0  0  0
   33.6270   -1.9220  -38.3800 C   0  0  0  0  0  0  0  0  0  0  0  0
   32.4490   -3.9000  -39.4340 C   0  0  2  0  0  0  0  0  0  0  0  0
   32.1440   -5.1970  -39.1600 F   0  0  0  0  0  0  0  0  0  0  0  0
   31.0960   -3.2610  -39.7780 C   0  0  1  0  0  0  0  0  0  0  0  0
   31.1820   -1.8440  -39.8060 O   0  0  0  0  0  0  0  0  0  0  0  0
   30.5220   -3.7270  -41.1100 C   0  0  0  0  0  0  0  0  0  0  0  0
   31.5160   -3.6360  -42.2580 C   0  0  1  0  0  0  0  0  0  0  0  0
   31.7820   -2.1850  -42.6420 C   0  0  0  0  0  0  0  0  0  0  0  0
   31.2160   -4.4980  -43.4830 C   0  0  2  0  0  0  0  0  0  0  0  0
   30.8350   -5.7880  -42.9730 O   0  0  0  0  0  0  0  0  0  0  0  0
   30.0930   -6.6510  -43.7400 C   0  0  0  0  0  0  0  0  0  0  0  0
   29.8930   -6.5780  -44.9490 O   0  0  0  0  0  0  0  0  0  0  0  0
   29.6100   -7.6840  -42.8750 C   0  0  0  0  0  0  0  0  0  0  0  0
   29.9290   -8.0020  -41.5730 C   0  0  0  0  0  0  0  0  0  0  0  0
   29.1380   -9.1270  -41.2410 C   0  0  0  0  0  0  0  0  0  0  0  0
   28.3890   -9.4220  -42.3590 C   0  0  0  0  0  0  0  0  0  0  0  0
   28.6720   -8.5450  -43.3610 O   0  0  0  0  0  0  0  0  0  0  0  0
   30.1510   -3.9120  -44.3990 C   0  0  0  0  0  0  0  0  0  0  0  0
   30.4040   -3.5550  -45.5410 O   0  0  0  0  0  0  0  0  0  0  0  0
   28.5140   -3.7810  -43.7390 S   0  0  0  0  0  0  0  0  0  0  0  0
   27.6720   -3.0180  -45.1380 C   0  0  0  0  0  0  0  0  0  0  0  0
   28.3980   -1.9350  -45.5240 F   0  0  0  0  0  0  0  0  0  0  0  0
   33.0485   -6.6479  -44.2167 H   0  0  0  0  0  0  0  0  0  0  0  0
   32.0028   -6.1031  -45.5718 H   0  0  0  0  0  0  0  0  0  0  0  0
   33.7540   -5.7031  -45.5718 H   0  0  0  0  0  0  0  0  0  0  0  0
   32.5716   -3.7806  -44.9772 H   0  0  0  0  0  0  0  0  0  0  0  0
   34.3389   -5.1964  -43.1149 H   0  0  0  0  0  0  0  0  0  0  0  0
   34.2208   -3.4600  -43.2428 H   0  0  0  0  0  0  0  0  0  0  0  0
   32.5617   -5.4001  -41.5355 H   0  0  0  0  0  0  0  0  0  0  0  0
   33.8094   -2.8800  -40.7265 H   0  0  0  0  0  0  0  0  0  0  0  0
   34.1822   -5.8667  -40.1401 H   0  0  0  0  0  0  0  0  0  0  0  0
   35.2839   -4.8616  -41.1349 H   0  0  0  0  0  0  0  0  0  0  0  0
   35.7372   -3.4005  -39.2048 H   0  0  0  0  0  0  0  0  0  0  0  0
   35.3969   -5.5375  -36.6717 H   0  0  0  0  0  0  0  0  0  0  0  0
   31.5973   -3.8177  -35.0711 H   0  0  0  0  0  0  0  0  0  0  0  0
   31.2817   -2.7110  -37.1744 H   0  0  0  0  0  0  0  0  0  0  0  0
   33.7897   -1.4523  -37.3987 H   0  0  0  0  0  0  0  0  0  0  0  0
   34.5728   -1.9355  -38.9414 H   0  0  0  0  0  0  0  0  0  0  0  0
   32.8755   -1.3474  -38.9414 H   0  0  0  0  0  0  0  0  0  0  0  0
   30.4196   -3.5913  -38.9759 H   0  0  0  0  0  0  0  0  0  0  0  0
   31.2031   -1.4963  -38.8793 H   0  0  0  0  0  0  0  0  0  0  0  0
   30.2039   -4.7748  -41.0057 H   0  0  0  0  0  0  0  0  0  0  0  0
   29.6811   -3.0610  -41.3534 H   0  0  0  0  0  0  0  0  0  0  0  0
   31.8931   -1.5790  -41.7307 H   0  0  0  0  0  0  0  0  0  0  0  0
   32.7059   -2.1264  -43.2362 H   0  0  0  0  0  0  0  0  0  0  0  0
   30.9390   -1.8025  -43.2362 H   0  0  0  0  0  0  0  0  0  0  0  0
   30.6517   -7.4861  -40.9237 H   0  0  0  0  0  0  0  0  0  0  0  0
   29.1238   -9.6611  -40.2794 H   0  0  0  0  0  0  0  0  0  0  0  0
   27.6660  -10.2478  -42.4316 H   0  0  0  0  0  0  0  0  0  0  0  0
   27.6017   -3.7359  -45.9685 H   0  0  0  0  0  0  0  0  0  0  0  0
   26.6539   -2.7144  -44.8527 H   0  0  0  0  0  0  0  0  0  0  0  0
  1  2  1  0
  2  3  1  0
  3  4  1  0
  4  5  1  0
  5  6  1  0
  6  7  1  0
  7  8  1  0
  7  9  1  0
  9 10  2  0
 10 11  1  0
 11 12  2  0
 11 13  1  0
 13 14  2  0
  9 15  1  0
 14 15  1  0
 15 16  1  6
  5 17  1  0
 15 17  1  0
 17 18  1  1
 17 19  1  0
 19 20  1  0
 19 21  1  0
  4 22  1  0
 21 22  1  0
 22 23  1  6
  2 24  1  0
 22 24  1  0
 24 25  1  1
 25 26  1  0
 26 27  2  0
 26 28  1  0
 28 29  2  0
 29 30  1  0
 30 31  2  0
 28 32  1  0
 31 32  1  0
 24 33  1  0
 33 34  2  0
 33 35  1  0
 35 36  1  0
 36 37  1  0
  1 38  1  0
  1 39  1  0
  1 40  1  0
  2 41  1  6
  3 42  1  0
  3 43  1  0
  4 44  1  1
  5 45  1  6
  6 46  1  0
  6 47  1  0
  7 48  1  6
 10 49  1  0
 13 50  1  0
 14 51  1  0
 16 52  1  0
 16 53  1  0
 16 54  1  0
 19 55  1  1
 20 56  1  0
 21 57  1  0
 21 58  1  0
 23 59  1  0
 23 60  1  0
 23 61  1  0
 29 62  1  0
 30 63  1  0
 31 64  1  0
 36 65  1  0
 36 66  1  0
M  END
$$$$
