PDB_DB01137_91
     RDKit          3D

 46 49  0  0  0  0  0  0  0  0999 V2000
  184.9770   28.8070   -2.6090 C   0  0  0  0  0  0  0  0  0  0  0  0
  183.0260   28.6730   -9.8050 F   0  0  0  0  0  0  0  0  0  0  0  0
  183.2650   25.1690  -12.6760 N   0  0  0  0  0  0  0  0  0  0  0  0
  184.5630   29.9850   -2.3420 O   0  0  0  0  0  0  0  0  0  0  0  0
  184.7460   26.3590  -11.1400 C   0  0  0  0  0  0  0  0  0  0  0  0
  183.8350   26.0420  -10.0380 N   0  0  0  0  0  0  0  0  0  0  0  0
  184.8390   24.8570   -7.7510 O   0  0  0  0  0  0  0  0  0  0  0  0
  182.9340   24.9000  -10.2390 C   0  0  0  0  0  0  0  0  0  0  0  0
  185.0610   26.2610   -5.3270 N   0  0  0  0  0  0  0  0  0  0  0  0
  183.8460   30.1930   -5.0520 O   0  0  0  0  0  0  0  0  0  0  0  0
  185.5270   24.8550   -5.3940 C   0  0  2  0  0  0  0  0  0  0  0  0
  185.5510   28.0620   -1.7770 O   0  0  0  0  0  0  0  0  0  0  0  0
  183.9370   26.7400   -8.8200 C   0  0  0  0  0  0  0  0  0  0  0  0
  184.5470   26.8830   -6.4550 C   0  0  0  0  0  0  0  0  0  0  0  0
  184.4600   26.1610   -7.6640 C   0  0  0  0  0  0  0  0  0  0  0  0
  184.0010   26.4000  -12.4500 C   0  0  0  0  0  0  0  0  0  0  0  0
  182.2880   24.9830  -11.6140 C   0  0  0  0  0  0  0  0  0  0  0  0
  185.8550   24.4670   -6.8140 C   0  0  0  0  0  0  0  0  0  0  0  0
  184.1290   28.2180   -6.3730 C   0  0  0  0  0  0  0  0  0  0  0  0
  183.5340   28.0830   -8.6860 C   0  0  0  0  0  0  0  0  0  0  0  0
  185.1530   26.9470   -4.1790 C   0  0  0  0  0  0  0  0  0  0  0  0
  183.6090   28.8210   -7.5350 C   0  0  0  0  0  0  0  0  0  0  0  0
  184.4890   23.8800   -4.8610 C   0  0  0  0  0  0  0  0  0  0  0  0
  184.2280   28.9850   -5.1030 C   0  0  0  0  0  0  0  0  0  0  0  0
  182.5870   25.2460  -13.9600 C   0  0  0  0  0  0  0  0  0  0  0  0
  184.7750   28.2550   -3.9920 C   0  0  0  0  0  0  0  0  0  0  0  0
  184.1170   30.5236   -3.0428 H   0  0  0  0  0  0  0  0  0  0  0  0
  185.2080   27.3402  -10.9561 H   0  0  0  0  0  0  0  0  0  0  0  0
  185.5192   25.5786  -11.1963 H   0  0  0  0  0  0  0  0  0  0  0  0
  183.5082   23.9649  -10.1621 H   0  0  0  0  0  0  0  0  0  0  0  0
  182.1486   24.9197   -9.4691 H   0  0  0  0  0  0  0  0  0  0  0  0
  186.4268   24.7975   -4.7639 H   0  0  0  0  0  0  0  0  0  0  0  0
  184.7223   26.5418  -13.2683 H   0  0  0  0  0  0  0  0  0  0  0  0
  183.2832   27.2329  -12.4158 H   0  0  0  0  0  0  0  0  0  0  0  0
  181.5886   25.8319  -11.6249 H   0  0  0  0  0  0  0  0  0  0  0  0
  181.7694   24.0307  -11.7987 H   0  0  0  0  0  0  0  0  0  0  0  0
  185.9739   23.3744   -6.8603 H   0  0  0  0  0  0  0  0  0  0  0  0
  186.7799   24.9928   -7.0936 H   0  0  0  0  0  0  0  0  0  0  0  0
  185.5678   26.4159   -3.3096 H   0  0  0  0  0  0  0  0  0  0  0  0
  183.2689   29.8670   -7.5181 H   0  0  0  0  0  0  0  0  0  0  0  0
  184.5037   23.8938   -3.7612 H   0  0  0  0  0  0  0  0  0  0  0  0
  183.4913   24.1751   -5.2181 H   0  0  0  0  0  0  0  0  0  0  0  0
  184.7211   22.8658   -5.2181 H   0  0  0  0  0  0  0  0  0  0  0  0
  181.5061   25.3688  -13.7971 H   0  0  0  0  0  0  0  0  0  0  0  0
  182.9724   26.1062  -14.5271 H   0  0  0  0  0  0  0  0  0  0  0  0
  182.7697   24.3213  -14.5271 H   0  0  0  0  0  0  0  0  0  0  0  0
  1  4  1  0
  5  6  1  0
  6  8  1  0
  9 11  1  0
  1 12  2  0
  6 13  1  0
  9 14  1  0
  7 15  1  0
 13 15  1  0
 14 15  2  0
  3 16  1  0
  5 16  1  0
  3 17  1  0
  8 17  1  0
  7 18  1  0
 11 18  1  0
 14 19  1  0
  2 20  1  0
 13 20  2  0
  9 21  1  0
 19 22  2  0
 20 22  1  0
 11 23  1  0
 19 24  1  0
 24 10  2  0
  3 25  1  0
  1 26  1  0
 21 26  2  0
 24 26  1  0
  4 27  1  0
  5 28  1  0
  5 29  1  0
  8 30  1  0
  8 31  1  0
 11 32  1  1
 16 33  1  0
 16 34  1  0
 17 35  1  0
 17 36  1  0
 18 37  1  0
 18 38  1  0
 21 39  1  0
 22 40  1  0
 23 41  1  0
 23 42  1  0
 23 43  1  0
 25 44  1  0
 25 45  1  0
 25 46  1  0
M  END
$$$$
