PDB_DB01076_98
     RDKit          3D

 76 79  0  0  0  0  0  0  0  0999 V2000
    1.4250  -12.1040  -13.6250 C   0  0  0  0  0  0  0  0  0  0  0  0
    1.7470  -10.8550  -14.1970 C   0  0  0  0  0  0  0  0  0  0  0  0
    1.4350  -10.6450  -15.5780 C   0  0  0  0  0  0  0  0  0  0  0  0
    0.8180  -11.6500  -16.3370 C   0  0  0  0  0  0  0  0  0  0  0  0
    0.5060  -12.8810  -15.7400 C   0  0  0  0  0  0  0  0  0  0  0  0
    0.8090  -13.1060  -14.3860 C   0  0  0  0  0  0  0  0  0  0  0  0
    5.7170  -13.1180  -13.1480 C   0  0  0  0  0  0  0  0  0  0  0  0
    5.0660  -11.8940  -13.4630 C   0  0  0  0  0  0  0  0  0  0  0  0
    4.3000  -11.2350  -12.4800 C   0  0  0  0  0  0  0  0  0  0  0  0
    4.2040  -11.8310  -11.1920 C   0  0  0  0  0  0  0  0  0  0  0  0
    4.8380  -13.0260  -10.8820 C   0  0  0  0  0  0  0  0  0  0  0  0
    5.5920  -13.6730  -11.8500 C   0  0  0  0  0  0  0  0  0  0  0  0
    6.2030  -14.8450  -11.5350 F   0  0  0  0  0  0  0  0  0  0  0  0
    3.5980  -10.0110  -12.6850 C   0  0  0  0  0  0  0  0  0  0  0  0
   -0.0390   -6.6290  -15.9210 C   0  0  0  0  0  0  0  0  0  0  0  0
    0.3060   -5.8100  -17.0170 C   0  0  0  0  0  0  0  0  0  0  0  0
   -0.6820   -5.0770  -17.6860 C   0  0  0  0  0  0  0  0  0  0  0  0
   -2.0150   -5.1540  -17.2660 C   0  0  0  0  0  0  0  0  0  0  0  0
   -2.3690   -5.9650  -16.1840 C   0  0  0  0  0  0  0  0  0  0  0  0
   -1.3890   -6.6990  -15.5150 C   0  0  0  0  0  0  0  0  0  0  0  0
    3.1730  -12.4530   -6.6240 O   0  0  0  0  0  0  0  0  0  0  0  0
    5.0380  -13.0550   -5.5090 O   0  0  0  0  0  0  0  0  0  0  0  0
    6.6150  -10.8610   -7.6500 O   0  0  0  0  0  0  0  0  0  0  0  0
    4.2370  -12.1590   -6.1020 C   0  0  0  0  0  0  0  0  0  0  0  0
    4.8140  -10.7450   -6.0470 C   0  0  0  0  0  0  0  0  0  0  0  0
    5.3580  -10.2550   -7.3980 C   0  0  1  0  0  0  0  0  0  0  0  0
    5.5800   -8.7620   -7.4250 C   0  0  0  0  0  0  0  0  0  0  0  0
    5.9940   -8.3190   -8.8200 C   0  0  1  0  0  0  0  0  0  0  0  0
    4.7820   -8.2320   -9.7570 C   0  0  0  0  0  0  0  0  0  0  0  0
    5.1850   -8.5070  -11.2210 C   0  0  0  0  0  0  0  0  0  0  0  0
    3.9960   -8.7740  -12.0980 N   0  0  0  0  0  0  0  0  0  0  0  0
    2.4040   -9.8350  -13.4620 C   0  0  0  0  0  0  0  0  0  0  0  0
    2.0480   -8.4580  -13.3250 C   0  0  0  0  0  0  0  0  0  0  0  0
    0.8460   -7.6920  -13.9090 C   0  0  0  0  0  0  0  0  0  0  0  0
    0.8620   -7.2860  -15.2910 N   0  0  0  0  0  0  0  0  0  0  0  0
   -0.0970   -7.4340  -13.1630 O   0  0  0  0  0  0  0  0  0  0  0  0
    3.0220   -7.8450  -12.5050 C   0  0  0  0  0  0  0  0  0  0  0  0
    3.1000   -6.3580  -12.0460 C   0  0  0  0  0  0  0  0  0  0  0  0
    2.9730   -5.3460  -13.1910 C   0  0  0  0  0  0  0  0  0  0  0  0
    2.0530   -6.0440  -10.9710 C   0  0  0  0  0  0  0  0  0  0  0  0
    6.6080   -7.0630   -8.7030 O   0  0  0  0  0  0  0  0  0  0  0  0
    1.6608  -12.2935  -12.5674 H   0  0  0  0  0  0  0  0  0  0  0  0
    1.6824   -9.6828  -16.0502 H   0  0  0  0  0  0  0  0  0  0  0  0
    0.5795  -11.4740  -17.3963 H   0  0  0  0  0  0  0  0  0  0  0  0
    0.0232  -13.6717  -16.3330 H   0  0  0  0  0  0  0  0  0  0  0  0
    0.5616  -14.0723  -13.9223 H   0  0  0  0  0  0  0  0  0  0  0  0
    6.3175  -13.6341  -13.9115 H   0  0  0  0  0  0  0  0  0  0  0  0
    5.1597  -11.4626  -14.4705 H   0  0  0  0  0  0  0  0  0  0  0  0
    3.6077  -11.3283  -10.4163 H   0  0  0  0  0  0  0  0  0  0  0  0
    4.7431  -13.4575   -9.8746 H   0  0  0  0  0  0  0  0  0  0  0  0
    1.3535   -5.7472  -17.3467 H   0  0  0  0  0  0  0  0  0  0  0  0
   -0.4106   -4.4409  -18.5414 H   0  0  0  0  0  0  0  0  0  0  0  0
   -2.7882   -4.5731  -17.7903 H   0  0  0  0  0  0  0  0  0  0  0  0
   -3.4186   -6.0245  -15.8604 H   0  0  0  0  0  0  0  0  0  0  0  0
   -1.6707   -7.3372  -14.6645 H   0  0  0  0  0  0  0  0  0  0  0  0
    2.6193  -11.7508   -7.0488 H   0  0  0  0  0  0  0  0  0  0  0  0
    7.0569  -11.0741   -6.7901 H   0  0  0  0  0  0  0  0  0  0  0  0
    4.0203  -10.0570   -5.7204 H   0  0  0  0  0  0  0  0  0  0  0  0
    5.6603  -10.7667   -5.3447 H   0  0  0  0  0  0  0  0  0  0  0  0
    4.6060  -10.5236   -8.1545 H   0  0  0  0  0  0  0  0  0  0  0  0
    4.6479   -8.2506   -7.1428 H   0  0  0  0  0  0  0  0  0  0  0  0
    6.3789   -8.5044   -6.7141 H   0  0  0  0  0  0  0  0  0  0  0  0
    6.6884   -9.0538   -9.2536 H   0  0  0  0  0  0  0  0  0  0  0  0
    4.0339   -8.9758   -9.4454 H   0  0  0  0  0  0  0  0  0  0  0  0
    4.3679   -7.2148   -9.6958 H   0  0  0  0  0  0  0  0  0  0  0  0
    5.7224   -7.6299  -11.6108 H   0  0  0  0  0  0  0  0  0  0  0  0
    5.8204   -9.4048  -11.2325 H   0  0  0  0  0  0  0  0  0  0  0  0
    1.6940   -7.5551  -15.8353 H   0  0  0  0  0  0  0  0  0  0  0  0
    4.1101   -6.2471  -11.6249 H   0  0  0  0  0  0  0  0  0  0  0  0
    2.8462   -4.3356  -12.7750 H   0  0  0  0  0  0  0  0  0  0  0  0
    3.8820   -5.3764  -13.8097 H   0  0  0  0  0  0  0  0  0  0  0  0
    2.0997   -5.6000  -13.8097 H   0  0  0  0  0  0  0  0  0  0  0  0
    2.4991   -6.1778   -9.9745 H   0  0  0  0  0  0  0  0  0  0  0  0
    1.7123   -5.0042  -11.0836 H   0  0  0  0  0  0  0  0  0  0  0  0
    1.1963   -6.7247  -11.0836 H   0  0  0  0  0  0  0  0  0  0  0  0
    6.7182   -6.8375   -7.7453 H   0  0  0  0  0  0  0  0  0  0  0  0
  1  2  2  0
  2  3  1  0
  3  4  2  0
  4  5  1  0
  1  6  1  0
  5  6  2  0
  7  8  2  0
  8  9  1  0
  9 10  2  0
 10 11  1  0
  7 12  1  0
 11 12  2  0
 12 13  1  0
  9 14  1  0
 15 16  2  0
 16 17  1  0
 17 18  2  0
 18 19  1  0
 15 20  1  0
 19 20  2  0
 21 24  1  0
 22 24  2  0
 24 25  1  0
 23 26  1  0
 25 26  1  0
 26 27  1  0
 27 28  1  0
 28 29  1  0
 29 30  1  0
 14 31  1  0
 30 31  1  0
  2 32  1  0
 14 32  2  0
 32 33  1  0
 33 34  1  0
 15 35  1  0
 34 35  1  0
 34 36  2  0
 31 37  1  0
 33 37  2  0
 37 38  1  0
 38 39  1  0
 38 40  1  0
 28 41  1  0
  1 42  1  0
  3 43  1  0
  4 44  1  0
  5 45  1  0
  6 46  1  0
  7 47  1  0
  8 48  1  0
 10 49  1  0
 11 50  1  0
 16 51  1  0
 17 52  1  0
 18 53  1  0
 19 54  1  0
 20 55  1  0
 21 56  1  0
 23 57  1  0
 25 58  1  0
 25 59  1  0
 26 60  1  6
 27 61  1  0
 27 62  1  0
 28 63  1  6
 29 64  1  0
 29 65  1  0
 30 66  1  0
 30 67  1  0
 35 68  1  0
 38 69  1  0
 39 70  1  0
 39 71  1  0
 39 72  1  0
 40 73  1  0
 40 74  1  0
 40 75  1  0
 41 76  1  0
M  END
$$$$
