PDB_DB00642_95
     RDKit          3D

 52 54  0  0  0  0  0  0  0  0999 V2000
  -43.2240  -49.5530    3.6100 C   0  0  0  0  0  0  0  0  0  0  0  0
  -41.8100  -49.5780    3.4990 C   0  0  0  0  0  0  0  0  0  0  0  0
  -41.0650  -48.3700    3.6010 C   0  0  0  0  0  0  0  0  0  0  0  0
  -41.7200  -47.1000    3.8230 C   0  0  0  0  0  0  0  0  0  0  0  0
  -43.1380  -47.1140    3.9270 C   0  0  0  0  0  0  0  0  0  0  0  0
  -43.8790  -48.3100    3.8270 C   0  0  0  0  0  0  0  0  0  0  0  0
  -44.0360  -50.8660    3.5120 C   0  0  0  0  0  0  0  0  0  0  0  0
  -44.7080  -51.1660    2.1410 C   0  0  0  0  0  0  0  0  0  0  0  0
  -46.0890  -50.5260    2.0040 C   0  0  0  0  0  0  0  0  0  0  0  0
  -47.1920  -50.7660    2.8260 C   0  0  0  0  0  0  0  0  0  0  0  0
  -48.2910  -50.0040    2.4180 N   0  0  0  0  0  0  0  0  0  0  0  0
  -47.8810  -49.2770    1.3280 C   0  0  0  0  0  0  0  0  0  0  0  0
  -46.5220  -49.6080    1.0780 C   0  0  0  0  0  0  0  0  0  0  0  0
  -45.8010  -48.9190   -0.1210 C   0  0  0  0  0  0  0  0  0  0  0  0
  -44.6450  -49.1200   -0.4390 O   0  0  0  0  0  0  0  0  0  0  0  0
  -46.5480  -48.0350   -0.8460 N   0  0  0  0  0  0  0  0  0  0  0  0
  -47.9280  -47.7410   -0.5350 C   0  0  0  0  0  0  0  0  0  0  0  0
  -48.5370  -48.3140    0.4620 N   0  0  0  0  0  0  0  0  0  0  0  0
  -48.6050  -46.8440   -1.3060 N   0  0  0  0  0  0  0  0  0  0  0  0
  -41.0100  -45.7490    3.9590 C   0  0  0  0  0  0  0  0  0  0  0  0
  -41.6630  -44.7190    4.1540 O   0  0  0  0  0  0  0  0  0  0  0  0
  -39.6680  -45.7370    3.8750 N   0  0  0  0  0  0  0  0  0  0  0  0
  -38.7770  -44.5470    4.0060 C   0  0  1  0  0  0  0  0  0  0  0  0
  -38.0680  -44.4820    5.3950 C   0  0  0  0  0  0  0  0  0  0  0  0
  -38.9820  -44.2170    6.6360 C   0  0  0  0  0  0  0  0  0  0  0  0
  -38.3050  -44.1650    8.0130 C   0  0  0  0  0  0  0  0  0  0  0  0
  -37.1980  -43.5880    8.1380 O   0  0  0  0  0  0  0  0  0  0  0  0
  -38.8800  -44.7040    8.9860 O   0  0  0  0  0  0  0  0  0  0  0  0
  -37.7740  -44.5180    2.7860 C   0  0  0  0  0  0  0  0  0  0  0  0
  -37.5120  -43.4480    2.1570 O   0  0  0  0  0  0  0  0  0  0  0  0
  -37.2190  -45.6100    2.4630 O   0  0  0  0  0  0  0  0  0  0  0  0
  -41.2888  -50.5325    3.3339 H   0  0  0  0  0  0  0  0  0  0  0  0
  -39.9693  -48.4028    3.5092 H   0  0  0  0  0  0  0  0  0  0  0  0
  -43.6718  -46.1661    4.0899 H   0  0  0  0  0  0  0  0  0  0  0  0
  -44.9749  -48.2807    3.9178 H   0  0  0  0  0  0  0  0  0  0  0  0
  -43.3539  -51.6985    3.7391 H   0  0  0  0  0  0  0  0  0  0  0  0
  -44.8664  -50.7486    4.2238 H   0  0  0  0  0  0  0  0  0  0  0  0
  -44.0606  -50.7789    1.3404 H   0  0  0  0  0  0  0  0  0  0  0  0
  -44.8401  -52.2557    2.0691 H   0  0  0  0  0  0  0  0  0  0  0  0
  -47.1958  -51.4605    3.6790 H   0  0  0  0  0  0  0  0  0  0  0  0
  -49.2256  -49.9907    2.8507 H   0  0  0  0  0  0  0  0  0  0  0  0
  -49.5223  -48.0752    0.6438 H   0  0  0  0  0  0  0  0  0  0  0  0
  -49.5892  -46.6243   -1.0965 H   0  0  0  0  0  0  0  0  0  0  0  0
  -48.1324  -46.3858   -2.0982 H   0  0  0  0  0  0  0  0  0  0  0  0
  -39.2077  -46.6421    3.7025 H   0  0  0  0  0  0  0  0  0  0  0  0
  -39.3873  -43.6326    3.9691 H   0  0  0  0  0  0  0  0  0  0  0  0
  -37.5586  -45.4437    5.5550 H   0  0  0  0  0  0  0  0  0  0  0  0
  -37.3972  -43.6121    5.3378 H   0  0  0  0  0  0  0  0  0  0  0  0
  -39.4820  -43.2501    6.4773 H   0  0  0  0  0  0  0  0  0  0  0  0
  -39.6513  -45.0886    6.6840 H   0  0  0  0  0  0  0  0  0  0  0  0
  -36.7562  -43.5510    9.0232 H   0  0  0  0  0  0  0  0  0  0  0  0
  -36.8785  -43.4634    1.3963 H   0  0  0  0  0  0  0  0  0  0  0  0
  1  2  2  0
  2  3  1  0
  3  4  2  0
  4  5  1  0
  1  6  1  0
  5  6  2  0
  1  7  1  0
  7  8  1  0
  8  9  1  0
  9 10  2  0
 10 11  1  0
 11 12  1  0
  9 13  1  0
 12 13  2  0
 13 14  1  0
 14 15  2  0
 14 16  1  0
 16 17  2  0
 12 18  1  0
 17 18  1  0
 17 19  1  0
  4 20  1  0
 20 21  2  0
 20 22  1  0
 22 23  1  0
 23 24  1  0
 24 25  1  0
 25 26  1  0
 26 27  1  0
 26 28  2  0
 23 29  1  0
 29 30  1  0
 29 31  2  0
  2 32  1  0
  3 33  1  0
  5 34  1  0
  6 35  1  0
  7 36  1  0
  7 37  1  0
  8 38  1  0
  8 39  1  0
 10 40  1  0
 11 41  1  0
 18 42  1  0
 19 43  1  0
 19 44  1  0
 22 45  1  0
 23 46  1  6
 24 47  1  0
 24 48  1  0
 25 49  1  0
 25 50  1  0
 27 51  1  0
 30 52  1  0
M  END
$$$$
