PDB_DB00788_99
     RDKit          3D

 31 32  0  0  0  0  0  0  0  0999 V2000
  -38.8240  -48.9260  -21.2490 C   0  0  0  0  0  0  0  0  0  0  0  0
  -38.0730  -47.7930  -21.0330 O   0  0  0  0  0  0  0  0  0  0  0  0
  -39.5610  -49.4030  -20.1670 C   0  0  0  0  0  0  0  0  0  0  0  0
  -42.2120  -54.2760  -22.9090 C   0  0  2  0  0  0  0  0  0  0  0  0
  -40.3440  -50.5430  -20.3040 C   0  0  0  0  0  0  0  0  0  0  0  0
  -40.4100  -51.2140  -21.5140 C   0  0  0  0  0  0  0  0  0  0  0  0
  -39.6820  -50.7510  -22.6110 C   0  0  0  0  0  0  0  0  0  0  0  0
  -38.8820  -49.6040  -22.4740 C   0  0  0  0  0  0  0  0  0  0  0  0
  -41.2090  -52.3520  -21.6270 C   0  0  0  0  0  0  0  0  0  0  0  0
  -41.2990  -53.0430  -22.8280 C   0  0  0  0  0  0  0  0  0  0  0  0
  -41.7120  -55.2940  -23.9400 C   0  0  0  0  0  0  0  0  0  0  0  0
  -39.7700  -51.4500  -23.8150 C   0  0  0  0  0  0  0  0  0  0  0  0
  -40.5800  -52.5850  -23.9360 C   0  0  0  0  0  0  0  0  0  0  0  0
  -37.3820  -47.2910  -22.1960 C   0  0  0  0  0  0  0  0  0  0  0  0
  -43.7780  -53.3860  -24.4690 O   0  0  0  0  0  0  0  0  0  0  0  0
  -44.5310  -53.8010  -22.4220 O   0  0  0  0  0  0  0  0  0  0  0  0
  -43.6290  -53.7950  -23.3010 C   0  0  0  0  0  0  0  0  0  0  0  0
  -39.5230  -48.8761  -19.2022 H   0  0  0  0  0  0  0  0  0  0  0  0
  -42.2170  -54.7792  -21.9309 H   0  0  0  0  0  0  0  0  0  0  0  0
  -40.9173  -50.9163  -19.4426 H   0  0  0  0  0  0  0  0  0  0  0  0
  -38.2991  -49.2369  -23.3316 H   0  0  0  0  0  0  0  0  0  0  0  0
  -41.7752  -52.7066  -20.7531 H   0  0  0  0  0  0  0  0  0  0  0  0
  -41.2848  -56.1637  -23.4192 H   0  0  0  0  0  0  0  0  0  0  0  0
  -42.5523  -55.6204  -24.5703 H   0  0  0  0  0  0  0  0  0  0  0  0
  -40.9400  -54.8285  -24.5703 H   0  0  0  0  0  0  0  0  0  0  0  0
  -39.1926  -51.1031  -24.6846 H   0  0  0  0  0  0  0  0  0  0  0  0
  -40.6505  -53.1139  -24.8979 H   0  0  0  0  0  0  0  0  0  0  0  0
  -36.5301  -46.6721  -21.8777 H   0  0  0  0  0  0  0  0  0  0  0  0
  -37.0167  -48.1357  -22.7985 H   0  0  0  0  0  0  0  0  0  0  0  0
  -38.0724  -46.6824  -22.7985 H   0  0  0  0  0  0  0  0  0  0  0  0
  -45.4456  -53.4977  -22.6492 H   0  0  0  0  0  0  0  0  0  0  0  0
  1  2  1  0
  1  3  2  0
  3  5  1  0
  5  6  2  0
  6  7  1  0
  1  8  1  0
  7  8  2  0
  6  9  1  0
  4 10  1  0
  9 10  2  0
  4 11  1  0
  7 12  1  0
 10 13  1  0
 12 13  2  0
  2 14  1  0
  4 17  1  0
 15 17  2  0
 16 17  1  0
  3 18  1  0
  4 19  1  1
  5 20  1  0
  8 21  1  0
  9 22  1  0
 11 23  1  0
 11 24  1  0
 11 25  1  0
 12 26  1  0
 13 27  1  0
 14 28  1  0
 14 29  1  0
 14 30  1  0
 16 31  1  0
M  END
$$$$
