PDB_DB00755_99
     RDKit          3D

 50 50  0  0  0  0  0  0  0  0999 V2000
   84.0970   60.3600   31.2700 C   0  0  0  0  0  0  0  0  0  0  0  0
   83.9150   61.8640   31.0560 C   0  0  0  0  0  0  0  0  0  0  0  0
   83.2380   62.6150   32.1970 C   0  0  0  0  0  0  0  0  0  0  0  0
   82.2100   61.7710   32.9250 C   0  0  0  0  0  0  0  0  0  0  0  0
   82.9700   60.6250   33.5300 C   0  0  0  0  0  0  0  0  0  0  0  0
   83.9050   59.9550   32.7280 C   0  0  0  0  0  0  0  0  0  0  0  0
   84.7750   58.8680   33.2030 C   0  0  0  0  0  0  0  0  0  0  0  0
   84.5510   58.1060   34.4300 C   0  0  0  0  0  0  0  0  0  0  0  0
   85.4810   57.0280   34.7730 C   0  0  0  0  0  0  0  0  0  0  0  0
   86.0710   56.9790   36.1180 C   0  0  0  0  0  0  0  0  0  0  0  0
   86.9930   58.0290   36.5730 C   0  0  0  0  0  0  0  0  0  0  0  0
   87.8070   57.7770   37.7690 C   0  0  0  0  0  0  0  0  0  0  0  0
   88.1510   58.8390   38.7300 C   0  0  0  0  0  0  0  0  0  0  0  0
   88.5820   58.4470   40.0170 C   0  0  0  0  0  0  0  0  0  0  0  0
   88.9910   59.3880   41.0730 C   0  0  0  0  0  0  0  0  0  0  0  0
   85.5280   59.9920   30.8940 C   0  0  0  0  0  0  0  0  0  0  0  0
   83.1460   59.5700   30.3770 C   0  0  0  0  0  0  0  0  0  0  0  0
   82.7010   60.2920   34.9690 C   0  0  0  0  0  0  0  0  0  0  0  0
   85.7700   55.9610   33.7610 C   0  0  0  0  0  0  0  0  0  0  0  0
   88.0170   60.2800   38.3370 C   0  0  0  0  0  0  0  0  0  0  0  0
   89.0010   59.0100   42.2640 O   0  0  0  0  0  0  0  0  0  0  0  0
   89.3490   60.5540   40.8080 O   0  0  0  0  0  0  0  0  0  0  0  0
   84.9102   62.3068   30.9030 H   0  0  0  0  0  0  0  0  0  0  0  0
   83.2448   61.9655   30.1897 H   0  0  0  0  0  0  0  0  0  0  0  0
   84.0080   62.9300   32.9167 H   0  0  0  0  0  0  0  0  0  0  0  0
   82.7115   63.4768   31.7610 H   0  0  0  0  0  0  0  0  0  0  0  0
   81.7184   62.3617   33.7120 H   0  0  0  0  0  0  0  0  0  0  0  0
   81.4225   61.4175   32.2432 H   0  0  0  0  0  0  0  0  0  0  0  0
   85.6538   58.6112   32.5933 H   0  0  0  0  0  0  0  0  0  0  0  0
   83.6982   58.3383   35.0848 H   0  0  0  0  0  0  0  0  0  0  0  0
   85.8196   56.1468   36.7920 H   0  0  0  0  0  0  0  0  0  0  0  0
   87.0716   58.9823   36.0299 H   0  0  0  0  0  0  0  0  0  0  0  0
   88.1737   56.7566   37.9542 H   0  0  0  0  0  0  0  0  0  0  0  0
   88.6140   57.3712   40.2445 H   0  0  0  0  0  0  0  0  0  0  0  0
   86.1198   59.8398   31.8086 H   0  0  0  0  0  0  0  0  0  0  0  0
   85.5246   59.0655   30.3010 H   0  0  0  0  0  0  0  0  0  0  0  0
   85.9720   60.8052   30.3010 H   0  0  0  0  0  0  0  0  0  0  0  0
   82.4503   58.9920   31.0030 H   0  0  0  0  0  0  0  0  0  0  0  0
   82.5770   60.2649   29.7419 H   0  0  0  0  0  0  0  0  0  0  0  0
   83.7248   58.8832   29.7419 H   0  0  0  0  0  0  0  0  0  0  0  0
   83.2599   60.9839   35.6162 H   0  0  0  0  0  0  0  0  0  0  0  0
   81.6243   60.3884   35.1726 H   0  0  0  0  0  0  0  0  0  0  0  0
   83.0216   59.2597   35.1726 H   0  0  0  0  0  0  0  0  0  0  0  0
   86.0238   55.0240   34.2784 H   0  0  0  0  0  0  0  0  0  0  0  0
   84.8823   55.8031   33.1309 H   0  0  0  0  0  0  0  0  0  0  0  0
   86.6161   56.2727   33.1309 H   0  0  0  0  0  0  0  0  0  0  0  0
   87.9591   60.9029   39.2418 H   0  0  0  0  0  0  0  0  0  0  0  0
   88.8911   60.5802   37.7405 H   0  0  0  0  0  0  0  0  0  0  0  0
   87.1025   60.4139   37.7405 H   0  0  0  0  0  0  0  0  0  0  0  0
   89.6192   61.1666   41.5372 H   0  0  0  0  0  0  0  0  0  0  0  0
  1  2  1  0
  2  3  1  0
  3  4  1  0
  4  5  1  0
  1  6  1  0
  5  6  2  0
  6  7  1  0
  7  8  2  0
  8  9  1  0
  9 10  2  0
 10 11  1  0
 11 12  2  0
 12 13  1  0
 13 14  2  0
 14 15  1  0
  1 16  1  0
  1 17  1  0
  5 18  1  0
  9 19  1  0
 13 20  1  0
 15 21  2  0
 15 22  1  0
  2 23  1  0
  2 24  1  0
  3 25  1  0
  3 26  1  0
  4 27  1  0
  4 28  1  0
  7 29  1  0
  8 30  1  0
 10 31  1  0
 11 32  1  0
 12 33  1  0
 14 34  1  0
 16 35  1  0
 16 36  1  0
 16 37  1  0
 17 38  1  0
 17 39  1  0
 17 40  1  0
 18 41  1  0
 18 42  1  0
 18 43  1  0
 19 44  1  0
 19 45  1  0
 19 46  1  0
 20 47  1  0
 20 48  1  0
 20 49  1  0
 22 50  1  0
M  END
$$$$
