PDB_DB01201_99
     RDKit          3D

127132  0  0  0  0  0  0  0  0999 V2000
  -38.4320  179.4510   -1.2260 C   0  0  0  0  0  0  0  0  0  0  0  0
  -37.0720  179.0370   -1.7030 C   0  0  0  0  0  0  0  0  0  0  0  0
  -35.9420  179.9650   -1.6780 C   0  0  0  0  0  0  0  0  0  0  0  0
  -36.1030  181.3110   -1.0780 C   0  0  0  0  0  0  0  0  0  0  0  0
  -37.6830  183.2420   -0.2350 C   0  0  0  0  0  0  0  0  0  0  0  0
  -39.0550  183.6400    0.1120 C   0  0  0  0  0  0  0  0  0  0  0  0
  -40.2020  182.8070    0.1970 C   0  0  0  0  0  0  0  0  0  0  0  0
  -40.0260  181.3500   -0.2040 C   0  0  0  0  0  0  0  0  0  0  0  0
  -38.6150  180.8530   -0.6940 C   0  0  0  0  0  0  0  0  0  0  0  0
  -37.3990  181.8020   -0.6610 C   0  0  0  0  0  0  0  0  0  0  0  0
  -36.8910  184.4050   -0.1210 C   0  0  0  0  0  0  0  0  0  0  0  0
  -37.8100  185.5760    0.1060 C   0  0  2  0  0  0  0  0  0  0  0  0
  -37.4110  186.4570    1.2590 C   0  0  0  0  0  0  0  0  0  0  0  0
  -41.5450  183.2940    0.6480 C   0  0  0  0  0  0  0  0  0  0  0  0
  -37.2160  176.4960   -1.9950 C   0  0  0  0  0  0  0  0  0  0  0  0
  -36.3310  175.4710   -2.6610 C   0  0  0  0  0  0  0  0  0  0  0  0
  -36.2590  175.2090   -4.0110 C   0  0  0  0  0  0  0  0  0  0  0  0
  -36.9220  175.8440   -5.1610 C   0  0  0  0  0  0  0  0  0  0  0  0
  -36.2670  176.1840   -6.2760 C   0  0  0  0  0  0  0  0  0  0  0  0
  -36.8100  176.8450   -7.5170 C   0  0  1  0  0  0  0  0  0  0  0  0
  -37.3050  178.3370   -7.2350 C   0  0  1  0  0  0  0  0  0  0  0  0
  -37.3850  179.3920   -8.3830 C   0  0  2  0  0  0  0  0  0  0  0  0
  -37.8690  180.8040   -7.9570 C   0  0  2  0  0  0  0  0  0  0  0  0
  -37.1350  181.6020   -6.8030 C   0  0  2  0  0  0  0  0  0  0  0  0
  -37.9030  183.0020   -6.5000 C   0  0  1  0  0  0  0  0  0  0  0  0
  -37.9200  183.5290   -5.0090 C   0  0  1  0  0  0  0  0  0  0  0  0
  -38.7690  184.8660   -4.8140 C   0  0  2  0  0  0  0  0  0  0  0  0
  -38.8600  185.4700   -3.3500 C   0  0  0  0  0  0  0  0  0  0  0  0
  -37.7980  185.9310   -2.6160 C   0  0  0  0  0  0  0  0  0  0  0  0
  -35.4850  174.7380   -1.6840 C   0  0  0  0  0  0  0  0  0  0  0  0
  -35.6450  176.7050   -8.5410 C   0  0  0  0  0  0  0  0  0  0  0  0
  -38.3030  178.9190   -9.5670 C   0  0  0  0  0  0  0  0  0  0  0  0
  -35.6160  181.8100   -7.0760 C   0  0  0  0  0  0  0  0  0  0  0  0
  -38.4010  182.3940   -4.1410 C   0  0  0  0  0  0  0  0  0  0  0  0
  -38.1060  184.5370   -8.4900 C   0  0  0  0  0  0  0  0  0  0  0  0
  -37.3710  185.5530   -9.2130 C   0  0  0  0  0  0  0  0  0  0  0  0
  -41.3490  184.3880   -4.6480 C   0  0  0  0  0  0  0  0  0  0  0  0
  -29.0740  176.9780   -4.9090 C   0  0  0  0  0  0  0  0  0  0  0  0
  -30.5120  178.7030   -3.6090 C   0  0  0  0  0  0  0  0  0  0  0  0
  -31.7330  178.8190   -2.6870 C   0  0  0  0  0  0  0  0  0  0  0  0
  -32.9200  176.9200   -3.9040 C   0  0  0  0  0  0  0  0  0  0  0  0
  -31.6580  176.7240   -4.8020 C   0  0  0  0  0  0  0  0  0  0  0  0
  -34.6070  179.6760   -2.3240 C   0  0  0  0  0  0  0  0  0  0  0  0
  -28.7290  175.4680   -5.0810 C   0  0  0  0  0  0  0  0  0  0  0  0
  -27.7520  177.5890   -4.2680 C   0  0  0  0  0  0  0  0  0  0  0  0
  -27.2120  175.4460   -5.0990 C   0  0  0  0  0  0  0  0  0  0  0  0
  -26.8770  176.3660   -3.9470 C   0  0  0  0  0  0  0  0  0  0  0  0
  -36.7750  177.7370   -2.2450 N   0  0  0  0  0  0  0  0  0  0  0  0
  -34.2590  178.5080   -2.8280 N   0  0  0  0  0  0  0  0  0  0  0  0
  -32.9790  178.3520   -3.4320 N   0  0  0  0  0  0  0  0  0  0  0  0
  -30.3590  177.2170   -4.0760 N   0  0  0  0  0  0  0  0  0  0  0  0
  -39.4490  178.6110   -1.2990 O   0  0  0  0  0  0  0  0  0  0  0  0
  -41.0170  180.5270   -0.1530 O   0  0  0  0  0  0  0  0  0  0  0  0
  -39.1370  184.9760    0.3430 O   0  0  0  0  0  0  0  0  0  0  0  0
  -35.6420  184.6180   -0.2360 O   0  0  0  0  0  0  0  0  0  0  0  0
  -37.8890  186.4860   -1.1740 O   0  0  0  0  0  0  0  0  0  0  0  0
  -40.1720  184.6450   -5.5170 O   0  0  0  0  0  0  0  0  0  0  0  0
  -37.3780  184.0460   -7.4140 O   0  0  0  0  0  0  0  0  0  0  0  0
  -39.2090  184.1620   -8.7670 O   0  0  0  0  0  0  0  0  0  0  0  0
  -39.2640  180.7400   -7.5560 O   0  0  0  0  0  0  0  0  0  0  0  0
  -38.5870  178.1960   -6.5740 O   0  0  0  0  0  0  0  0  0  0  0  0
  -38.1650  176.1640   -1.3220 O   0  0  0  0  0  0  0  0  0  0  0  0
  -34.9430  182.0680   -1.0000 O   0  0  0  0  0  0  0  0  0  0  0  0
  -37.6416  185.9478    2.2064 H   0  0  0  0  0  0  0  0  0  0  0  0
  -36.3317  186.6630    1.2067 H   0  0  0  0  0  0  0  0  0  0  0  0
  -37.9680  187.4041    1.2067 H   0  0  0  0  0  0  0  0  0  0  0  0
  -41.5802  183.3068    1.7474 H   0  0  0  0  0  0  0  0  0  0  0  0
  -41.7143  184.3108    0.2639 H   0  0  0  0  0  0  0  0  0  0  0  0
  -42.3266  182.6221    0.2639 H   0  0  0  0  0  0  0  0  0  0  0  0
  -35.5877  174.3790   -4.2764 H   0  0  0  0  0  0  0  0  0  0  0  0
  -38.0014  176.0474   -5.1009 H   0  0  0  0  0  0  0  0  0  0  0  0
  -35.1920  175.9510   -6.2893 H   0  0  0  0  0  0  0  0  0  0  0  0
  -37.7259  176.3795   -7.9098 H   0  0  0  0  0  0  0  0  0  0  0  0
  -36.4970  178.7962   -6.6466 H   0  0  0  0  0  0  0  0  0  0  0  0
  -36.3354  179.4755   -8.7012 H   0  0  0  0  0  0  0  0  0  0  0  0
  -37.6373  181.3678   -8.8727 H   0  0  0  0  0  0  0  0  0  0  0  0
  -37.1847  180.9815   -5.8961 H   0  0  0  0  0  0  0  0  0  0  0  0
  -38.9635  182.7737   -6.6824 H   0  0  0  0  0  0  0  0  0  0  0  0
  -36.9040  183.8291   -4.7130 H   0  0  0  0  0  0  0  0  0  0  0  0
  -38.2096  185.6787   -5.3005 H   0  0  0  0  0  0  0  0  0  0  0  0
  -39.8560  185.5232   -2.8862 H   0  0  0  0  0  0  0  0  0  0  0  0
  -36.8048  185.9045   -3.0881 H   0  0  0  0  0  0  0  0  0  0  0  0
  -35.7916  175.0037   -0.6616 H   0  0  0  0  0  0  0  0  0  0  0  0
  -35.6066  173.6550   -1.8336 H   0  0  0  0  0  0  0  0  0  0  0  0
  -34.4304  175.0126   -1.8336 H   0  0  0  0  0  0  0  0  0  0  0  0
  -34.6937  176.5907   -8.0007 H   0  0  0  0  0  0  0  0  0  0  0  0
  -35.8164  175.8210   -9.1728 H   0  0  0  0  0  0  0  0  0  0  0  0
  -35.6021  177.6044   -9.1728 H   0  0  0  0  0  0  0  0  0  0  0  0
  -39.2120  178.4506   -9.1616 H   0  0  0  0  0  0  0  0  0  0  0  0
  -38.5812  179.7860  -10.1842 H   0  0  0  0  0  0  0  0  0  0  0  0
  -37.7585  178.1892  -10.1842 H   0  0  0  0  0  0  0  0  0  0  0  0
  -35.0782  181.8836   -6.1192 H   0  0  0  0  0  0  0  0  0  0  0  0
  -35.2266  180.9568   -7.6508 H   0  0  0  0  0  0  0  0  0  0  0  0
  -35.4703  182.7365   -7.6508 H   0  0  0  0  0  0  0  0  0  0  0  0
  -38.2850  182.6677   -3.0819 H   0  0  0  0  0  0  0  0  0  0  0  0
  -39.4614  182.1935   -4.3539 H   0  0  0  0  0  0  0  0  0  0  0  0
  -37.8075  181.4926   -4.3539 H   0  0  0  0  0  0  0  0  0  0  0  0
  -36.8812  186.2301   -8.4977 H   0  0  0  0  0  0  0  0  0  0  0  0
  -36.6089  185.0741   -9.8454 H   0  0  0  0  0  0  0  0  0  0  0  0
  -38.0643  186.1269   -9.8454 H   0  0  0  0  0  0  0  0  0  0  0  0
  -41.0468  184.4540   -3.5924 H   0  0  0  0  0  0  0  0  0  0  0  0
  -42.1275  185.1373   -4.8540 H   0  0  0  0  0  0  0  0  0  0  0  0
  -41.7443  183.3824   -4.8540 H   0  0  0  0  0  0  0  0  0  0  0  0
  -29.3293  177.4709   -5.8587 H   0  0  0  0  0  0  0  0  0  0  0  0
  -30.6505  179.3519   -4.4863 H   0  0  0  0  0  0  0  0  0  0  0  0
  -29.6077  179.0146   -3.0657 H   0  0  0  0  0  0  0  0  0  0  0  0
  -31.5812  178.1910   -1.7968 H   0  0  0  0  0  0  0  0  0  0  0  0
  -31.8614  179.8671   -2.3789 H   0  0  0  0  0  0  0  0  0  0  0  0
  -33.8243  176.6872   -4.4854 H   0  0  0  0  0  0  0  0  0  0  0  0
  -32.8619  176.2479   -3.0352 H   0  0  0  0  0  0  0  0  0  0  0  0
  -31.5511  175.6557   -5.0412 H   0  0  0  0  0  0  0  0  0  0  0  0
  -31.7893  177.3174   -5.7189 H   0  0  0  0  0  0  0  0  0  0  0  0
  -33.8754  180.4957   -2.3776 H   0  0  0  0  0  0  0  0  0  0  0  0
  -29.1200  174.8778   -4.2391 H   0  0  0  0  0  0  0  0  0  0  0  0
  -29.1727  175.0297   -5.9871 H   0  0  0  0  0  0  0  0  0  0  0  0
  -27.2444  178.2529   -4.9832 H   0  0  0  0  0  0  0  0  0  0  0  0
  -27.9629  178.1973   -3.3761 H   0  0  0  0  0  0  0  0  0  0  0  0
  -26.8239  174.4312   -4.9273 H   0  0  0  0  0  0  0  0  0  0  0  0
  -26.7728  175.7552   -6.0590 H   0  0  0  0  0  0  0  0  0  0  0  0
  -25.8085  176.6272   -3.9388 H   0  0  0  0  0  0  0  0  0  0  0  0
  -27.0631  175.9290   -2.9549 H   0  0  0  0  0  0  0  0  0  0  0  0
  -36.0656  177.7670   -2.9912 H   0  0  0  0  0  0  0  0  0  0  0  0
  -40.3448  178.8896   -0.9826 H   0  0  0  0  0  0  0  0  0  0  0  0
  -40.8892  179.5814   -0.4167 H   0  0  0  0  0  0  0  0  0  0  0  0
  -39.3235  180.7373   -6.5678 H   0  0  0  0  0  0  0  0  0  0  0  0
  -38.4558  178.2104   -5.5928 H   0  0  0  0  0  0  0  0  0  0  0  0
  -34.9710  182.9780   -0.6111 H   0  0  0  0  0  0  0  0  0  0  0  0
  1  2  1  0
  2  3  2  0
  3  4  1  0
  5  6  2  0
  6  7  1  0
  7  8  2  0
  1  9  2  0
  8  9  1  0
  4 10  2  0
  5 10  1  0
  9 10  1  0
  5 11  1  0
 11 12  1  0
 12 13  1  1
  7 14  1  0
 15 16  1  0
 16 17  2  0
 17 18  1  0
 18 19  2  0
 19 20  1  0
 20 21  1  0
 21 22  1  0
 22 23  1  0
 23 24  1  0
 24 25  1  0
 25 26  1  0
 26 27  1  0
 27 28  1  0
 28 29  2  0
 16 30  1  0
 20 31  1  0
 22 32  1  0
 24 33  1  0
 26 34  1  0
 35 36  1  0
 39 40  1  0
 41 42  1  0
  3 43  1  0
 38 44  1  0
 38 45  1  0
 44 46  1  0
 45 47  1  0
 46 47  1  0
  2 48  1  0
 15 48  1  0
 43 49  2  0
 40 50  1  0
 41 50  1  0
 49 50  1  0
 38 51  1  0
 39 51  1  0
 42 51  1  0
  1 52  1  0
  8 53  1  0
  6 54  1  0
 12 54  1  0
 11 55  2  0
 12 56  1  0
 29 56  1  0
 27 57  1  0
 37 57  1  0
 25 58  1  0
 35 58  1  0
 35 59  2  0
 23 60  1  0
 21 61  1  0
 15 62  2  0
  4 63  1  0
 13 64  1  0
 13 65  1  0
 13 66  1  0
 14 67  1  0
 14 68  1  0
 14 69  1  0
 17 70  1  0
 18 71  1  0
 19 72  1  0
 20 73  1  6
 21 74  1  1
 22 75  1  6
 23 76  1  6
 24 77  1  1
 25 78  1  6
 26 79  1  1
 27 80  1  6
 28 81  1  0
 29 82  1  0
 30 83  1  0
 30 84  1  0
 30 85  1  0
 31 86  1  0
 31 87  1  0
 31 88  1  0
 32 89  1  0
 32 90  1  0
 32 91  1  0
 33 92  1  0
 33 93  1  0
 33 94  1  0
 34 95  1  0
 34 96  1  0
 34 97  1  0
 36 98  1  0
 36 99  1  0
 36100  1  0
 37101  1  0
 37102  1  0
 37103  1  0
 38104  1  0
 39105  1  0
 39106  1  0
 40107  1  0
 40108  1  0
 41109  1  0
 41110  1  0
 42111  1  0
 42112  1  0
 43113  1  0
 44114  1  0
 44115  1  0
 45116  1  0
 45117  1  0
 46118  1  0
 46119  1  0
 47120  1  0
 47121  1  0
 48122  1  0
 52123  1  0
 53124  1  0
 60125  1  0
 61126  1  0
 63127  1  0
M  END
$$$$
