PDB_DB00642_92
     RDKit          3D

 52 54  0  0  0  0  0  0  0  0999 V2000
    0.3780  -76.5090  -28.4640 C   0  0  0  0  0  0  0  0  0  0  0  0
    0.3640  -75.6740  -27.3170 C   0  0  0  0  0  0  0  0  0  0  0  0
   -0.1580  -76.1610  -26.0860 C   0  0  0  0  0  0  0  0  0  0  0  0
   -0.6780  -77.5050  -25.9700 C   0  0  0  0  0  0  0  0  0  0  0  0
   -0.6500  -78.3110  -27.1410 C   0  0  0  0  0  0  0  0  0  0  0  0
   -0.1330  -77.8320  -28.3620 C   0  0  0  0  0  0  0  0  0  0  0  0
    0.9560  -75.9860  -29.8000 C   0  0  0  0  0  0  0  0  0  0  0  0
   -0.0740  -75.4960  -30.8580 C   0  0  0  0  0  0  0  0  0  0  0  0
   -0.5970  -76.6250  -31.7460 C   0  0  0  0  0  0  0  0  0  0  0  0
    0.1730  -77.4420  -32.5770 C   0  0  0  0  0  0  0  0  0  0  0  0
   -0.6300  -78.3760  -33.2380 N   0  0  0  0  0  0  0  0  0  0  0  0
   -1.9190  -78.1480  -32.8240 C   0  0  0  0  0  0  0  0  0  0  0  0
   -1.8890  -77.0640  -31.9050 C   0  0  0  0  0  0  0  0  0  0  0  0
   -3.2350  -76.5910  -31.2760 C   0  0  0  0  0  0  0  0  0  0  0  0
   -3.3410  -75.6750  -30.4830 O   0  0  0  0  0  0  0  0  0  0  0  0
   -4.3540  -77.2700  -31.6640 N   0  0  0  0  0  0  0  0  0  0  0  0
   -4.3130  -78.3680  -32.6020 C   0  0  0  0  0  0  0  0  0  0  0  0
   -3.1950  -78.7670  -33.1340 N   0  0  0  0  0  0  0  0  0  0  0  0
   -5.4750  -78.9980  -32.9370 N   0  0  0  0  0  0  0  0  0  0  0  0
   -1.2500  -78.1270  -24.6920 C   0  0  0  0  0  0  0  0  0  0  0  0
   -1.6650  -79.2900  -24.6960 O   0  0  0  0  0  0  0  0  0  0  0  0
   -1.2630  -77.3690  -23.5810 N   0  0  0  0  0  0  0  0  0  0  0  0
   -1.7450  -77.7780  -22.2280 C   0  0  1  0  0  0  0  0  0  0  0  0
   -0.5720  -78.0930  -21.2470 C   0  0  0  0  0  0  0  0  0  0  0  0
    0.2920  -79.3560  -21.5710 C   0  0  0  0  0  0  0  0  0  0  0  0
    1.4590  -79.6730  -20.6260 C   0  0  0  0  0  0  0  0  0  0  0  0
    1.3100  -79.5350  -19.3880 O   0  0  0  0  0  0  0  0  0  0  0  0
    2.5410  -80.0660  -21.1190 O   0  0  0  0  0  0  0  0  0  0  0  0
   -2.7430  -76.6820  -21.6840 C   0  0  0  0  0  0  0  0  0  0  0  0
   -3.8320  -76.9900  -21.1110 O   0  0  0  0  0  0  0  0  0  0  0  0
   -2.4080  -75.4680  -21.8240 O   0  0  0  0  0  0  0  0  0  0  0  0
    0.7573  -74.6486  -27.3794 H   0  0  0  0  0  0  0  0  0  0  0  0
   -0.1660  -75.5019  -25.2054 H   0  0  0  0  0  0  0  0  0  0  0  0
   -1.0428  -79.3373  -27.0929 H   0  0  0  0  0  0  0  0  0  0  0  0
   -0.1248  -78.4884  -29.2447 H   0  0  0  0  0  0  0  0  0  0  0  0
    1.6234  -75.1430  -29.5680 H   0  0  0  0  0  0  0  0  0  0  0  0
    1.4556  -76.8516  -30.2595 H   0  0  0  0  0  0  0  0  0  0  0  0
   -0.9258  -75.0389  -30.3332 H   0  0  0  0  0  0  0  0  0  0  0  0
    0.4401  -74.7743  -31.5098 H   0  0  0  0  0  0  0  0  0  0  0  0
    1.2636  -77.3614  -32.6953 H   0  0  0  0  0  0  0  0  0  0  0  0
   -0.3159  -79.0949  -33.9054 H   0  0  0  0  0  0  0  0  0  0  0  0
   -3.2159  -79.5520  -33.8005 H   0  0  0  0  0  0  0  0  0  0  0  0
   -5.4616  -79.7824  -33.6044 H   0  0  0  0  0  0  0  0  0  0  0  0
   -6.3661  -78.6895  -32.5227 H   0  0  0  0  0  0  0  0  0  0  0  0
   -0.9037  -76.4081  -23.6728 H   0  0  0  0  0  0  0  0  0  0  0  0
   -2.2931  -78.7281  -22.3109 H   0  0  0  0  0  0  0  0  0  0  0  0
    0.0998  -77.2220  -21.2395 H   0  0  0  0  0  0  0  0  0  0  0  0
   -1.0519  -78.3099  -20.2813 H   0  0  0  0  0  0  0  0  0  0  0  0
   -0.3810  -80.2261  -21.5681 H   0  0  0  0  0  0  0  0  0  0  0  0
    0.7653  -79.1332  -22.5386 H   0  0  0  0  0  0  0  0  0  0  0  0
    2.0593  -79.7380  -18.7736 H   0  0  0  0  0  0  0  0  0  0  0  0
   -4.4362  -76.2785  -20.7810 H   0  0  0  0  0  0  0  0  0  0  0  0
  1  2  2  0
  2  3  1  0
  3  4  2  0
  4  5  1  0
  1  6  1  0
  5  6  2  0
  1  7  1  0
  7  8  1  0
  8  9  1  0
  9 10  2  0
 10 11  1  0
 11 12  1  0
  9 13  1  0
 12 13  2  0
 13 14  1  0
 14 15  2  0
 14 16  1  0
 16 17  2  0
 12 18  1  0
 17 18  1  0
 17 19  1  0
  4 20  1  0
 20 21  2  0
 20 22  1  0
 22 23  1  0
 23 24  1  0
 24 25  1  0
 25 26  1  0
 26 27  1  0
 26 28  2  0
 23 29  1  0
 29 30  1  0
 29 31  2  0
  2 32  1  0
  3 33  1  0
  5 34  1  0
  6 35  1  0
  7 36  1  0
  7 37  1  0
  8 38  1  0
  8 39  1  0
 10 40  1  0
 11 41  1  0
 18 42  1  0
 19 43  1  0
 19 44  1  0
 22 45  1  0
 23 46  1  6
 24 47  1  0
 24 48  1  0
 25 49  1  0
 25 50  1  0
 27 51  1  0
 30 52  1  0
M  END
$$$$
