PDB_DB01254_93
     RDKit          3D

 59 62  0  0  0  0  0  0  0  0999 V2000
    7.8170  -34.4980   -6.8290 C   0  0  0  0  0  0  0  0  0  0  0  0
    6.8840  -35.4430   -6.6510 C   0  0  0  0  0  0  0  0  0  0  0  0
    5.4680  -35.4380   -7.2070 C   0  0  0  0  0  0  0  0  0  0  0  0
   14.1320  -40.8660   -0.5180 N   0  0  0  0  0  0  0  0  0  0  0  0
    1.3900  -34.2460   -9.7540 C   0  0  0  0  0  0  0  0  0  0  0  0
    2.4170  -34.8960  -10.4300 C   0  0  0  0  0  0  0  0  0  0  0  0
    3.6950  -34.9810   -9.8630 C   0  0  0  0  0  0  0  0  0  0  0  0
    4.8160  -35.6940  -10.6160 C   0  0  0  0  0  0  0  0  0  0  0  0
   10.0720  -37.5090   -4.1670 C   0  0  0  0  0  0  0  0  0  0  0  0
   11.2620  -38.0280   -3.6710 C   0  0  0  0  0  0  0  0  0  0  0  0
   11.2050  -39.2350   -2.9670 C   0  0  0  0  0  0  0  0  0  0  0  0
    8.8810  -39.3390   -3.3080 C   0  0  0  0  0  0  0  0  0  0  0  0
    7.5460  -40.0600   -3.0910 C   0  0  0  0  0  0  0  0  0  0  0  0
   12.1320  -41.2480   -1.8640 C   0  0  0  0  0  0  0  0  0  0  0  0
   13.6830  -39.2940   -2.3820 C   0  0  0  0  0  0  0  0  0  0  0  0
   14.6020  -41.0110    0.8820 C   0  0  0  0  0  0  0  0  0  0  0  0
   15.6760  -39.9760    1.2470 C   0  0  0  0  0  0  0  0  0  0  0  0
   10.0700  -36.3630   -4.8530 N   0  0  0  0  0  0  0  0  0  0  0  0
    9.0170  -35.9160   -5.5410 C   0  0  0  0  0  0  0  0  0  0  0  0
    8.9930  -34.7500   -6.2150 N   0  0  0  0  0  0  0  0  0  0  0  0
    7.4970  -36.6730   -5.6880 S   0  0  0  0  0  0  0  0  0  0  0  0
    5.1820  -34.4560   -8.0630 N   0  0  0  0  0  0  0  0  0  0  0  0
    3.9520  -34.3870   -8.6140 C   0  0  0  0  0  0  0  0  0  0  0  0
    2.9240  -33.7320   -7.9480 C   0  0  0  0  0  0  0  0  0  0  0  0
    1.6440  -33.6630   -8.5050 C   0  0  0  0  0  0  0  0  0  0  0  0
    3.2530  -33.0200   -6.4030 Cl  0  0  0  0  0  0  0  0  0  0  0  0
    4.6560  -36.2870   -6.8390 O   0  0  0  0  0  0  0  0  0  0  0  0
   10.0190  -39.8600   -2.8240 N   0  0  0  0  0  0  0  0  0  0  0  0
    8.9190  -38.1740   -3.9710 N   0  0  0  0  0  0  0  0  0  0  0  0
   12.3330  -39.8800   -2.4140 N   0  0  0  0  0  0  0  0  0  0  0  0
   12.7390  -41.3330   -0.4810 C   0  0  0  0  0  0  0  0  0  0  0  0
   14.2660  -39.4650   -0.9800 C   0  0  0  0  0  0  0  0  0  0  0  0
   16.6660  -40.6120    2.0890 O   0  0  0  0  0  0  0  0  0  0  0  0
    7.6396  -33.5914   -7.4262 H   0  0  0  0  0  0  0  0  0  0  0  0
    0.3846  -34.1898  -10.1968 H   0  0  0  0  0  0  0  0  0  0  0  0
    2.2246  -35.3458  -11.4152 H   0  0  0  0  0  0  0  0  0  0  0  0
    5.5167  -36.1396   -9.8946 H   0  0  0  0  0  0  0  0  0  0  0  0
    4.3874  -36.4858  -11.2479 H   0  0  0  0  0  0  0  0  0  0  0  0
    5.3514  -34.9701  -11.2479 H   0  0  0  0  0  0  0  0  0  0  0  0
   12.2177  -37.5063   -3.8271 H   0  0  0  0  0  0  0  0  0  0  0  0
    7.3558  -40.1627   -2.0124 H   0  0  0  0  0  0  0  0  0  0  0  0
    6.7352  -39.4771   -3.5524 H   0  0  0  0  0  0  0  0  0  0  0  0
    7.5888  -41.0576   -3.5524 H   0  0  0  0  0  0  0  0  0  0  0  0
   11.0551  -41.4643   -1.8051 H   0  0  0  0  0  0  0  0  0  0  0  0
   12.6194  -41.9819   -2.5227 H   0  0  0  0  0  0  0  0  0  0  0  0
   14.3250  -39.8065   -3.1135 H   0  0  0  0  0  0  0  0  0  0  0  0
   13.6303  -38.2248   -2.6349 H   0  0  0  0  0  0  0  0  0  0  0  0
   13.7438  -40.8835    1.5581 H   0  0  0  0  0  0  0  0  0  0  0  0
   15.0496  -42.0105    0.9846 H   0  0  0  0  0  0  0  0  0  0  0  0
   16.1553  -39.6010    0.3307 H   0  0  0  0  0  0  0  0  0  0  0  0
   15.2164  -39.1314    1.7813 H   0  0  0  0  0  0  0  0  0  0  0  0
   10.9279  -35.7930   -4.8511 H   0  0  0  0  0  0  0  0  0  0  0  0
    5.8964  -33.7537   -8.3024 H   0  0  0  0  0  0  0  0  0  0  0  0
    0.8355  -33.1508   -7.9628 H   0  0  0  0  0  0  0  0  0  0  0  0
   12.7130  -42.3767   -0.1345 H   0  0  0  0  0  0  0  0  0  0  0  0
   12.1620  -40.6987    0.2080 H   0  0  0  0  0  0  0  0  0  0  0  0
   13.7294  -38.8035   -0.2839 H   0  0  0  0  0  0  0  0  0  0  0  0
   15.3347  -39.2061   -1.0102 H   0  0  0  0  0  0  0  0  0  0  0  0
   16.4348  -40.4635    3.0401 H   0  0  0  0  0  0  0  0  0  0  0  0
  1  2  2  0
  2  3  1  0
  5  6  2  0
  6  7  1  0
  7  8  1  0
  9 10  2  0
 10 11  1  0
 12 13  1  0
  4 16  1  0
 16 17  1  0
  9 18  1  0
 18 19  1  0
  1 20  1  0
 19 20  2  0
  2 21  1  0
 19 21  1  0
  3 22  1  0
  7 23  2  0
 22 23  1  0
 23 24  1  0
  5 25  1  0
 24 25  2  0
 24 26  1  0
  3 27  2  0
 11 28  2  0
 12 28  1  0
  9 29  1  0
 12 29  2  0
 11 30  1  0
 14 30  1  0
 15 30  1  0
  4 31  1  0
 14 31  1  0
  4 32  1  0
 15 32  1  0
 17 33  1  0
  1 34  1  0
  5 35  1  0
  6 36  1  0
  8 37  1  0
  8 38  1  0
  8 39  1  0
 10 40  1  0
 13 41  1  0
 13 42  1  0
 13 43  1  0
 14 44  1  0
 14 45  1  0
 15 46  1  0
 15 47  1  0
 16 48  1  0
 16 49  1  0
 17 50  1  0
 17 51  1  0
 18 52  1  0
 22 53  1  0
 25 54  1  0
 31 55  1  0
 31 56  1  0
 32 57  1  0
 32 58  1  0
 33 59  1  0
M  END
$$$$
