PDB_DB01132_98
     RDKit          3D

 45 47  0  0  0  0  0  0  0  0999 V2000
  -11.1950  -22.5820   11.9210 O   0  0  0  0  0  0  0  0  0  0  0  0
  -10.2950  -23.0480   11.2230 C   0  0  0  0  0  0  0  0  0  0  0  0
  -10.5410  -23.4790    9.9730 N   0  0  0  0  0  0  0  0  0  0  0  0
   -8.8320  -23.1500   11.6930 C   0  0  2  0  0  0  0  0  0  0  0  0
   -8.0460  -23.8930   10.2370 S   0  0  0  0  0  0  0  0  0  0  0  0
   -9.4800  -23.9580    9.3010 C   0  0  0  0  0  0  0  0  0  0  0  0
   -9.5200  -24.3980    8.1500 O   0  0  0  0  0  0  0  0  0  0  0  0
   -8.7090  -24.0560   12.9120 C   0  0  0  0  0  0  0  0  0  0  0  0
   -2.1000  -25.2660   21.2120 C   0  0  0  0  0  0  0  0  0  0  0  0
   -7.4110  -23.8040   13.7010 C   0  0  0  0  0  0  0  0  0  0  0  0
   -6.8320  -22.5280   13.7390 C   0  0  0  0  0  0  0  0  0  0  0  0
   -5.6590  -22.3020   14.4610 C   0  0  0  0  0  0  0  0  0  0  0  0
   -5.0580  -23.3470   15.1590 C   0  0  0  0  0  0  0  0  0  0  0  0
   -5.6310  -24.6270   15.1190 C   0  0  0  0  0  0  0  0  0  0  0  0
   -6.8070  -24.8580   14.3940 C   0  0  0  0  0  0  0  0  0  0  0  0
   -3.9160  -23.0910   15.8600 O   0  0  0  0  0  0  0  0  0  0  0  0
   -3.5490  -24.1900   16.7160 C   0  0  0  0  0  0  0  0  0  0  0  0
   -2.7560  -23.5870   17.8710 C   0  0  0  0  0  0  0  0  0  0  0  0
    0.3190  -27.3400   22.1500 C   0  0  0  0  0  0  0  0  0  0  0  0
   -1.0180  -27.3320   21.7710 C   0  0  0  0  0  0  0  0  0  0  0  0
   -1.4440  -26.4240   20.8130 C   0  0  0  0  0  0  0  0  0  0  0  0
   -1.2310  -26.6550   19.4420 C   0  0  0  0  0  0  0  0  0  0  0  0
   -1.6470  -25.7580   18.5400 N   0  0  0  0  0  0  0  0  0  0  0  0
   -2.5240  -24.3520   20.2540 C   0  0  0  0  0  0  0  0  0  0  0  0
   -2.2900  -24.6220   18.9050 C   0  0  0  0  0  0  0  0  0  0  0  0
  -11.4826  -23.4442    9.5570 H   0  0  0  0  0  0  0  0  0  0  0  0
   -8.3877  -22.1939   12.0069 H   0  0  0  0  0  0  0  0  0  0  0  0
   -9.5671  -23.8738   13.5757 H   0  0  0  0  0  0  0  0  0  0  0  0
   -8.6890  -25.0967   12.5562 H   0  0  0  0  0  0  0  0  0  0  0  0
   -2.2828  -25.0735   22.2795 H   0  0  0  0  0  0  0  0  0  0  0  0
   -7.3061  -21.6977   13.1952 H   0  0  0  0  0  0  0  0  0  0  0  0
   -5.2090  -21.2984   14.4788 H   0  0  0  0  0  0  0  0  0  0  0  0
   -5.1528  -25.4559   15.6614 H   0  0  0  0  0  0  0  0  0  0  0  0
   -7.2532  -25.8632   14.3698 H   0  0  0  0  0  0  0  0  0  0  0  0
   -4.4498  -24.6948   17.0951 H   0  0  0  0  0  0  0  0  0  0  0  0
   -2.9555  -24.9395   16.1719 H   0  0  0  0  0  0  0  0  0  0  0  0
   -1.8689  -23.0843   17.4584 H   0  0  0  0  0  0  0  0  0  0  0  0
   -3.4277  -22.8899   18.3934 H   0  0  0  0  0  0  0  0  0  0  0  0
    0.3889  -27.3404   23.2478 H   0  0  0  0  0  0  0  0  0  0  0  0
    0.8078  -28.2411   21.7511 H   0  0  0  0  0  0  0  0  0  0  0  0
    0.8186  -26.4448   21.7511 H   0  0  0  0  0  0  0  0  0  0  0  0
   -1.2493  -28.3366   21.3871 H   0  0  0  0  0  0  0  0  0  0  0  0
   -1.5467  -27.0177   22.6830 H   0  0  0  0  0  0  0  0  0  0  0  0
   -0.7226  -27.5727   19.1112 H   0  0  0  0  0  0  0  0  0  0  0  0
   -3.0377  -23.4273   20.5557 H   0  0  0  0  0  0  0  0  0  0  0  0
  1  2  2  0
  2  3  1  0
  2  4  1  0
  4  5  1  0
  3  6  1  0
  5  6  1  0
  6  7  2  0
  4  8  1  0
  8 10  1  0
 10 11  2  0
 11 12  1  0
 12 13  2  0
 13 14  1  0
 10 15  1  0
 14 15  2  0
 13 16  1  0
 16 17  1  0
 17 18  1  0
 19 20  1  0
  9 21  2  0
 20 21  1  0
 21 22  1  0
 22 23  2  0
  9 24  1  0
 18 25  1  0
 23 25  1  0
 24 25  2  0
  3 26  1  0
  4 27  1  1
  8 28  1  0
  8 29  1  0
  9 30  1  0
 11 31  1  0
 12 32  1  0
 14 33  1  0
 15 34  1  0
 17 35  1  0
 17 36  1  0
 18 37  1  0
 18 38  1  0
 19 39  1  0
 19 40  1  0
 19 41  1  0
 20 42  1  0
 20 43  1  0
 22 44  1  0
 24 45  1  0
M  END
$$$$
