PDB_DB00293_89
     RDKit          3D

 54 56  0  0  0  0  0  0  0  0999 V2000
   95.8960   14.6940   -2.0260 N   0  0  0  0  0  0  0  0  0  0  0  0
   97.2130   15.0960   -1.5860 C   0  0  0  0  0  0  0  0  0  0  0  0
   98.2070   15.7030   -2.5170 C   0  0  0  0  0  0  0  0  0  0  0  0
   97.6460   14.9320   -0.2450 N   0  0  0  0  0  0  0  0  0  0  0  0
   96.7950   14.3630    0.6760 C   0  0  0  0  0  0  0  0  0  0  0  0
   97.1780   14.2290    1.7930 O   0  0  0  0  0  0  0  0  0  0  0  0
   95.4280   13.9240    0.3030 C   0  0  0  0  0  0  0  0  0  0  0  0
   94.5850   13.3430    1.2850 C   0  0  0  0  0  0  0  0  0  0  0  0
   93.3010   12.9650    0.8860 C   0  0  0  0  0  0  0  0  0  0  0  0
   92.9030   13.1450   -0.4620 C   0  0  0  0  0  0  0  0  0  0  0  0
   93.7500   13.7050   -1.4250 C   0  0  0  0  0  0  0  0  0  0  0  0
   95.0210   14.1070   -1.0250 C   0  0  0  0  0  0  0  0  0  0  0  0
   92.3190   12.3130    1.8700 C   0  0  0  0  0  0  0  0  0  0  0  0
   91.5580   11.2760    1.1440 N   0  0  0  0  0  0  0  0  0  0  0  0
   93.1560    8.2730   -0.9570 C   0  0  0  0  0  0  0  0  0  0  0  0
   91.6460    9.1330   -0.7760 S   0  0  0  0  0  0  0  0  0  0  0  0
   92.2480   10.2190    0.4370 C   0  0  0  0  0  0  0  0  0  0  0  0
   93.5730    9.9190    0.6430 C   0  0  0  0  0  0  0  0  0  0  0  0
   94.0380    8.8830   -0.0940 C   0  0  0  0  0  0  0  0  0  0  0  0
   93.6380    7.1030   -1.8270 C   0  0  0  0  0  0  0  0  0  0  0  0
   94.7820    6.7580   -1.6080 O   0  0  0  0  0  0  0  0  0  0  0  0
   92.8610    6.4030   -2.8580 N   0  0  0  0  0  0  0  0  0  0  0  0
   93.3840    5.2830   -3.6740 C   0  0  1  0  0  0  0  0  0  0  0  0
   94.8020    5.5190   -4.1680 C   0  0  0  0  0  0  0  0  0  0  0  0
   95.0680    5.2970   -5.6650 C   0  0  0  0  0  0  0  0  0  0  0  0
   96.4660    5.8160   -5.9680 C   0  0  0  0  0  0  0  0  0  0  0  0
   96.6220    7.0030   -6.3770 O   0  0  0  0  0  0  0  0  0  0  0  0
   97.4760    5.0720   -5.7800 O   0  0  0  0  0  0  0  0  0  0  0  0
   93.3910    3.9840   -2.9290 C   0  0  0  0  0  0  0  0  0  0  0  0
   93.8430    3.8880   -1.7570 O   0  0  0  0  0  0  0  0  0  0  0  0
   92.9590    2.9440   -3.5070 O   0  0  0  0  0  0  0  0  0  0  0  0
   90.1240   11.2780    1.0930 C   0  0  0  0  0  0  0  0  0  0  0  0
   95.5922   14.8177   -3.0024 H   0  0  0  0  0  0  0  0  0  0  0  0
   99.0041   16.1898   -1.9359 H   0  0  0  0  0  0  0  0  0  0  0  0
   98.6432   14.9170   -3.1510 H   0  0  0  0  0  0  0  0  0  0  0  0
   97.7070   16.4500   -3.1510 H   0  0  0  0  0  0  0  0  0  0  0  0
   94.9289   13.1961    2.3195 H   0  0  0  0  0  0  0  0  0  0  0  0
   91.8917   12.8333   -0.7623 H   0  0  0  0  0  0  0  0  0  0  0  0
   93.4208   13.8240   -2.4678 H   0  0  0  0  0  0  0  0  0  0  0  0
   92.8744   11.8539    2.7011 H   0  0  0  0  0  0  0  0  0  0  0  0
   91.6339   13.0695    2.2803 H   0  0  0  0  0  0  0  0  0  0  0  0
   94.2052   10.4760    1.3501 H   0  0  0  0  0  0  0  0  0  0  0  0
   95.0801    8.5419   -0.0066 H   0  0  0  0  0  0  0  0  0  0  0  0
   91.8919    6.7100   -3.0240 H   0  0  0  0  0  0  0  0  0  0  0  0
   92.6935    5.2310   -4.5287 H   0  0  0  0  0  0  0  0  0  0  0  0
   95.0645    6.5617   -3.9359 H   0  0  0  0  0  0  0  0  0  0  0  0
   95.4118    4.7606   -3.6552 H   0  0  0  0  0  0  0  0  0  0  0  0
   95.0071    4.2244   -5.9014 H   0  0  0  0  0  0  0  0  0  0  0  0
   94.3199    5.8276   -6.2722 H   0  0  0  0  0  0  0  0  0  0  0  0
   97.5305    7.3430   -6.5748 H   0  0  0  0  0  0  0  0  0  0  0  0
   93.8328    3.0138   -1.2926 H   0  0  0  0  0  0  0  0  0  0  0  0
   89.7207   11.2786    2.1164 H   0  0  0  0  0  0  0  0  0  0  0  0
   89.7772   12.1766    0.5617 H   0  0  0  0  0  0  0  0  0  0  0  0
   89.7747   10.3803    0.5617 H   0  0  0  0  0  0  0  0  0  0  0  0
  1  2  1  0
  2  3  1  0
  2  4  2  0
  4  5  1  0
  5  6  2  0
  5  7  1  0
  7  8  1  0
  8  9  2  0
  9 10  1  0
 10 11  2  0
  1 12  1  0
  7 12  2  0
 11 12  1  0
  9 13  1  0
 13 14  1  0
 15 16  1  0
 14 17  1  0
 16 17  1  0
 17 18  2  0
 15 19  2  0
 18 19  1  0
 15 20  1  0
 20 21  2  0
 20 22  1  0
 22 23  1  0
 23 24  1  0
 24 25  1  0
 25 26  1  0
 26 27  1  0
 26 28  2  0
 23 29  1  0
 29 30  1  0
 29 31  2  0
 14 32  1  0
  1 33  1  0
  3 34  1  0
  3 35  1  0
  3 36  1  0
  8 37  1  0
 10 38  1  0
 11 39  1  0
 13 40  1  0
 13 41  1  0
 18 42  1  0
 19 43  1  0
 22 44  1  0
 23 45  1  6
 24 46  1  0
 24 47  1  0
 25 48  1  0
 25 49  1  0
 27 50  1  0
 30 51  1  0
 32 52  1  0
 32 53  1  0
 32 54  1  0
M  END
$$$$
