PDB_DB00215_97
     RDKit          3D

 45 47  0  0  0  0  0  0  0  0999 V2000
   42.2130  175.8320    0.4820 C   0  0  0  0  0  0  0  0  0  0  0  0
   43.7280  178.8500   -0.1270 C   0  0  0  0  0  0  0  0  0  0  0  0
   41.2130  174.7360    0.8690 C   0  0  0  0  0  0  0  0  0  0  0  0
   43.6410  180.3360   -0.4540 C   0  0  0  0  0  0  0  0  0  0  0  0
   42.2450  174.8840   -1.9970 C   0  0  0  0  0  0  0  0  0  0  0  0
   41.2460  173.7970   -1.6030 C   0  0  0  0  0  0  0  0  0  0  0  0
   47.5330  178.5270    3.3720 C   0  0  0  0  0  0  0  0  0  0  0  0
   42.5790  182.7060   -0.0340 C   0  0  0  0  0  0  0  0  0  0  0  0
   40.8230  172.9120   -2.5200 F   0  0  0  0  0  0  0  0  0  0  0  0
   41.6690  176.8500    2.5360 O   0  0  0  0  0  0  0  0  0  0  0  0
   47.2420  177.0710    3.3850 N   0  0  0  0  0  0  0  0  0  0  0  0
   42.5050  183.8420   -0.2770 N   0  0  0  0  0  0  0  0  0  0  0  0
   42.6730  176.8100    1.5250 C   0  0  1  0  0  0  0  0  0  0  0  0
   43.9860  176.2730    2.1450 C   0  0  0  0  0  0  0  0  0  0  0  0
   42.8270  178.2210    0.9710 C   0  0  0  0  0  0  0  0  0  0  0  0
   41.8750  179.0890    1.6970 C   0  0  0  0  0  0  0  0  0  0  0  0
   44.9100  177.3970    2.6690 C   0  0  0  0  0  0  0  0  0  0  0  0
   41.1630  178.2460    2.6650 C   0  0  0  0  0  0  0  0  0  0  0  0
   45.8580  176.8270    3.7270 C   0  0  0  0  0  0  0  0  0  0  0  0
   41.7840  180.6010    1.3680 C   0  0  0  0  0  0  0  0  0  0  0  0
   42.7270  175.8960   -0.9460 C   0  0  0  0  0  0  0  0  0  0  0  0
   42.6740  181.2100    0.2880 C   0  0  0  0  0  0  0  0  0  0  0  0
   40.7290  173.7190   -0.1780 C   0  0  0  0  0  0  0  0  0  0  0  0
   47.5680  176.4730    2.1120 C   0  0  0  0  0  0  0  0  0  0  0  0
   44.4384  178.2143   -0.6759 H   0  0  0  0  0  0  0  0  0  0  0  0
   40.8395  174.6768    1.9020 H   0  0  0  0  0  0  0  0  0  0  0  0
   44.2867  180.7670   -1.2333 H   0  0  0  0  0  0  0  0  0  0  0  0
   42.6181  174.9419   -3.0302 H   0  0  0  0  0  0  0  0  0  0  0  0
   47.6066  178.8954    4.4058 H   0  0  0  0  0  0  0  0  0  0  0  0
   48.4847  178.7061    2.8503 H   0  0  0  0  0  0  0  0  0  0  0  0
   46.7232  179.0581    2.8503 H   0  0  0  0  0  0  0  0  0  0  0  0
   43.7316  175.6086    2.9839 H   0  0  0  0  0  0  0  0  0  0  0  0
   44.5316  175.7414    1.3515 H   0  0  0  0  0  0  0  0  0  0  0  0
   45.4968  177.8081    1.8343 H   0  0  0  0  0  0  0  0  0  0  0  0
   44.2991  178.1951    3.1161 H   0  0  0  0  0  0  0  0  0  0  0  0
   40.0834  178.2705    2.4554 H   0  0  0  0  0  0  0  0  0  0  0  0
   41.3341  178.6168    3.6864 H   0  0  0  0  0  0  0  0  0  0  0  0
   45.6951  175.7420    3.8055 H   0  0  0  0  0  0  0  0  0  0  0  0
   45.6461  177.3250    4.6846 H   0  0  0  0  0  0  0  0  0  0  0  0
   41.0743  181.2384    1.9158 H   0  0  0  0  0  0  0  0  0  0  0  0
   43.4509  176.6739   -1.2303 H   0  0  0  0  0  0  0  0  0  0  0  0
   40.0096  172.9366    0.1052 H   0  0  0  0  0  0  0  0  0  0  0  0
   48.0885  175.5182    2.2779 H   0  0  0  0  0  0  0  0  0  0  0  0
   46.6434  176.2927    1.5441 H   0  0  0  0  0  0  0  0  0  0  0  0
   48.2205  177.1525    1.5441 H   0  0  0  0  0  0  0  0  0  0  0  0
  1  3  2  0
  2  4  2  0
  5  6  1  0
  6  9  1  0
  7 11  1  0
  8 12  3  0
  1 13  1  0
 10 13  1  0
 13 14  1  1
  2 15  1  0
 13 15  1  0
 15 16  2  0
 14 17  1  0
 10 18  1  0
 16 18  1  0
 11 19  1  0
 17 19  1  0
 16 20  1  0
  1 21  1  0
  5 21  2  0
  4 22  1  0
  8 22  1  0
 20 22  2  0
  3 23  1  0
  6 23  2  0
 11 24  1  0
  2 25  1  0
  3 26  1  0
  4 27  1  0
  5 28  1  0
  7 29  1  0
  7 30  1  0
  7 31  1  0
 14 32  1  0
 14 33  1  0
 17 34  1  0
 17 35  1  0
 18 36  1  0
 18 37  1  0
 19 38  1  0
 19 39  1  0
 20 40  1  0
 21 41  1  0
 23 42  1  0
 24 43  1  0
 24 44  1  0
 24 45  1  0
M  END
$$$$
