PDB_DB04729_94
     RDKit          3D

 70 72  0  0  0  0  0  0  0  0999 V2000
    2.6870  121.9080  -37.1990 C   0  0  2  0  0  0  0  0  0  0  0  0
    2.2160  121.1450  -38.3550 O   0  0  0  0  0  0  0  0  0  0  0  0
    2.0630  121.3610  -35.8930 C   0  0  2  0  0  0  0  0  0  0  0  0
    2.3740  119.9690  -35.7920 N   0  0  0  0  0  0  0  0  0  0  0  0
    0.5010  121.6310  -35.8690 C   0  0  0  0  0  0  0  0  0  0  0  0
    0.2630  123.1870  -35.9710 C   0  0  0  0  0  0  0  0  0  0  0  0
    0.9400  123.7140  -37.3200 C   0  0  2  0  0  0  0  0  0  0  0  0
    2.3710  123.3720  -37.3760 O   0  0  0  0  0  0  0  0  0  0  0  0
    0.7850  125.2110  -37.5090 C   0  0  0  0  0  0  0  0  0  0  0  0
    1.3130  125.6520  -38.7730 N   0  0  0  0  0  0  0  0  0  0  0  0
    3.7870  120.3940  -42.3070 C   0  0  2  0  0  0  0  0  0  0  0  0
    4.3740  120.6400  -43.5890 N   0  0  0  0  0  0  0  0  0  0  0  0
    2.4530  121.2220  -42.1790 C   0  0  0  0  0  0  0  0  0  0  0  0
    1.7860  120.9690  -40.7610 C   0  0  2  0  0  0  0  0  0  0  0  0
    0.5380  121.7410  -40.6360 N   0  0  0  0  0  0  0  0  0  0  0  0
    2.8100  121.3620  -39.6040 C   0  0  2  0  0  0  0  0  0  0  0  0
    4.1560  120.5140  -39.7690 C   0  0  2  0  0  0  0  0  0  0  0  0
    5.0850  120.8580  -38.7470 O   0  0  0  0  0  0  0  0  0  0  0  0
    4.7950  120.7860  -41.1910 C   0  0  1  0  0  0  0  0  0  0  0  0
    5.9990  120.0200  -41.3130 O   0  0  0  0  0  0  0  0  0  0  0  0
    7.2490  120.5650  -41.8650 C   0  0  2  0  0  0  0  0  0  0  0  0
    8.3000  119.4070  -41.8830 C   0  0  2  0  0  0  0  0  0  0  0  0
    7.7950  118.3250  -42.6330 O   0  0  0  0  0  0  0  0  0  0  0  0
    8.6550  119.0000  -40.3790 C   0  0  1  0  0  0  0  0  0  0  0  0
    9.6580  117.8830  -40.3340 N   0  0  0  0  0  0  0  0  0  0  0  0
    9.2360  120.2900  -39.5610 C   0  0  1  0  0  0  0  0  0  0  0  0
   10.4480  120.7530  -40.1230 O   0  0  0  0  0  0  0  0  0  0  0  0
    8.2000  121.4550  -39.6140 C   0  0  0  0  0  0  0  0  0  0  0  0
    7.7750  121.7260  -41.0460 O   0  0  0  0  0  0  0  0  0  0  0  0
    9.6200  120.0630  -38.0910 C   0  0  0  0  0  0  0  0  0  0  0  0
    9.2120  116.5980  -39.7700 C   0  0  0  0  0  0  0  0  0  0  0  0
    3.7788  121.7962  -37.1248 H   0  0  0  0  0  0  0  0  0  0  0  0
    2.4833  121.8795  -35.0187 H   0  0  0  0  0  0  0  0  0  0  0  0
    2.4337  119.7017  -34.7991 H   0  0  0  0  0  0  0  0  0  0  0  0
    1.6354  119.4179  -36.2521 H   0  0  0  0  0  0  0  0  0  0  0  0
    0.0235  121.1255  -36.7213 H   0  0  0  0  0  0  0  0  0  0  0  0
    0.0645  121.2422  -34.9371 H   0  0  0  0  0  0  0  0  0  0  0  0
   -0.8166  123.3972  -35.9905 H   0  0  0  0  0  0  0  0  0  0  0  0
    0.7069  123.6949  -35.1021 H   0  0  0  0  0  0  0  0  0  0  0  0
    0.4056  123.2050  -38.1357 H   0  0  0  0  0  0  0  0  0  0  0  0
   -0.2840  125.4661  -37.4621 H   0  0  0  0  0  0  0  0  0  0  0  0
    1.3495  125.7147  -36.7105 H   0  0  0  0  0  0  0  0  0  0  0  0
    2.0936  126.3040  -38.6103 H   0  0  0  0  0  0  0  0  0  0  0  0
    1.6508  124.8384  -39.3067 H   0  0  0  0  0  0  0  0  0  0  0  0
    3.5486  119.3256  -42.1986 H   0  0  0  0  0  0  0  0  0  0  0  0
    5.3170  121.0352  -43.4647 H   0  0  0  0  0  0  0  0  0  0  0  0
    4.4388  119.7553  -44.1124 H   0  0  0  0  0  0  0  0  0  0  0  0
    2.6780  122.2931  -42.2890 H   0  0  0  0  0  0  0  0  0  0  0  0
    1.7548  120.9026  -42.9667 H   0  0  0  0  0  0  0  0  0  0  0  0
    1.5390  119.9013  -40.6660 H   0  0  0  0  0  0  0  0  0  0  0  0
    0.3172  121.8776  -39.6393 H   0  0  0  0  0  0  0  0  0  0  0  0
    0.6544  122.6579  -41.0907 H   0  0  0  0  0  0  0  0  0  0  0  0
    3.0677  122.4289  -39.6765 H   0  0  0  0  0  0  0  0  0  0  0  0
    3.9125  119.4449  -39.6814 H   0  0  0  0  0  0  0  0  0  0  0  0
    4.6719  120.7050  -37.8604 H   0  0  0  0  0  0  0  0  0  0  0  0
    5.0311  121.8551  -41.2972 H   0  0  0  0  0  0  0  0  0  0  0  0
    7.0592  120.9508  -42.8775 H   0  0  0  0  0  0  0  0  0  0  0  0
    9.2321  119.7318  -42.3684 H   0  0  0  0  0  0  0  0  0  0  0  0
    7.4668  117.6219  -42.0181 H   0  0  0  0  0  0  0  0  0  0  0  0
    7.7264  118.6519  -39.9030 H   0  0  0  0  0  0  0  0  0  0  0  0
    9.9678  117.7061  -41.3003 H   0  0  0  0  0  0  0  0  0  0  0  0
   11.0774  120.9935  -39.3977 H   0  0  0  0  0  0  0  0  0  0  0  0
    7.3158  121.1800  -39.0202 H   0  0  0  0  0  0  0  0  0  0  0  0
    8.6657  122.3633  -39.2039 H   0  0  0  0  0  0  0  0  0  0  0  0
    8.8574  120.5138  -37.4390 H   0  0  0  0  0  0  0  0  0  0  0  0
    9.6818  118.9832  -37.8907 H   0  0  0  0  0  0  0  0  0  0  0  0
   10.5959  120.5295  -37.8907 H   0  0  0  0  0  0  0  0  0  0  0  0
    9.2312  116.6533  -38.6716 H   0  0  0  0  0  0  0  0  0  0  0  0
    8.1873  116.3849  -40.1086 H   0  0  0  0  0  0  0  0  0  0  0  0
    9.8843  115.7959  -40.1086 H   0  0  0  0  0  0  0  0  0  0  0  0
  2  1  1  0
  3  1  1  0
  4  3  1  0
  5  3  1  0
  6  5  1  0
  7  6  1  0
  8  7  1  0
  8  1  1  0
  9  7  1  0
 10  9  1  0
 12 11  1  0
 13 11  1  0
 14 13  1  0
 15 14  1  0
 16 14  1  0
 16  2  1  0
 17 16  1  0
 18 17  1  0
 19 17  1  0
 19 11  1  0
 20 19  1  0
 21 20  1  0
 22 21  1  0
 23 22  1  0
 24 22  1  0
 25 24  1  0
 26 24  1  0
 26 27  1  6
 28 26  1  0
 29 28  1  0
 29 21  1  0
 30 26  1  0
 31 25  1  0
  1 32  1  1
  3 33  1  1
  4 34  1  0
  4 35  1  0
  5 36  1  0
  5 37  1  0
  6 38  1  0
  6 39  1  0
  7 40  1  6
  9 41  1  0
  9 42  1  0
 10 43  1  0
 10 44  1  0
 11 45  1  6
 12 46  1  0
 12 47  1  0
 13 48  1  0
 13 49  1  0
 14 50  1  1
 15 51  1  0
 15 52  1  0
 16 53  1  6
 17 54  1  6
 18 55  1  0
 19 56  1  1
 21 57  1  6
 22 58  1  6
 23 59  1  0
 24 60  1  1
 25 61  1  0
 27 62  1  0
 28 63  1  0
 28 64  1  0
 30 65  1  0
 30 66  1  0
 30 67  1  0
 31 68  1  0
 31 69  1  0
 31 70  1  0
M  END
$$$$
