PDB_DB04729_88
     RDKit          3D

 70 72  0  0  0  0  0  0  0  0999 V2000
   45.5430  149.9510  -95.0270 C   0  0  2  0  0  0  0  0  0  0  0  0
   46.6880  149.3400  -95.7040 O   0  0  0  0  0  0  0  0  0  0  0  0
   45.4610  151.4540  -95.4060 C   0  0  2  0  0  0  0  0  0  0  0  0
   45.3590  151.5450  -96.8240 N   0  0  0  0  0  0  0  0  0  0  0  0
   46.7270  152.2400  -94.8440 C   0  0  0  0  0  0  0  0  0  0  0  0
   46.7330  152.0910  -93.2790 C   0  0  0  0  0  0  0  0  0  0  0  0
   46.8010  150.5350  -92.9180 C   0  0  2  0  0  0  0  0  0  0  0  0
   45.6940  149.7800  -93.5430 O   0  0  0  0  0  0  0  0  0  0  0  0
   46.7940  150.2680  -91.4300 C   0  0  0  0  0  0  0  0  0  0  0  0
   46.9400  148.8680  -91.1290 N   0  0  0  0  0  0  0  0  0  0  0  0
   47.8900  145.4650  -97.1610 C   0  0  2  0  0  0  0  0  0  0  0  0
   47.9410  144.0440  -97.3140 N   0  0  0  0  0  0  0  0  0  0  0  0
   48.2390  145.8430  -95.6710 C   0  0  0  0  0  0  0  0  0  0  0  0
   48.1800  147.4190  -95.4810 C   0  0  2  0  0  0  0  0  0  0  0  0
   48.5000  147.7830  -94.0930 N   0  0  0  0  0  0  0  0  0  0  0  0
   46.7350  147.9540  -95.8770 C   0  0  2  0  0  0  0  0  0  0  0  0
   46.4070  147.5430  -97.3850 C   0  0  2  0  0  0  0  0  0  0  0  0
   45.1100  148.0100  -97.7500 O   0  0  0  0  0  0  0  0  0  0  0  0
   46.4760  145.9690  -97.5460 C   0  0  1  0  0  0  0  0  0  0  0  0
   46.1860  145.6240  -98.9010 O   0  0  0  0  0  0  0  0  0  0  0  0
   44.9830  144.8890  -99.2990 C   0  0  2  0  0  0  0  0  0  0  0  0
   45.3230  144.1420 -100.6280 C   0  0  2  0  0  0  0  0  0  0  0  0
   46.4180  143.2780 -100.4210 O   0  0  0  0  0  0  0  0  0  0  0  0
   45.6100  145.2240 -101.7680 C   0  0  1  0  0  0  0  0  0  0  0  0
   45.9510  144.5700 -103.0790 N   0  0  0  0  0  0  0  0  0  0  0  0
   44.3140  146.2000 -101.9650 C   0  0  1  0  0  0  0  0  0  0  0  0
   43.1860  145.4720 -102.4140 O   0  0  0  0  0  0  0  0  0  0  0  0
   43.9520  146.8730 -100.6010 C   0  0  0  0  0  0  0  0  0  0  0  0
   43.8170  145.8220  -99.5170 O   0  0  0  0  0  0  0  0  0  0  0  0
   44.4420  147.3040 -103.0250 C   0  0  0  0  0  0  0  0  0  0  0  0
   47.3730  144.5170 -103.4630 C   0  0  0  0  0  0  0  0  0  0  0  0
   44.6108  149.4602  -95.3434 H   0  0  0  0  0  0  0  0  0  0  0  0
   44.5756  151.9227  -94.9516 H   0  0  0  0  0  0  0  0  0  0  0  0
   44.6131  152.2104  -97.0726 H   0  0  0  0  0  0  0  0  0  0  0  0
   46.2549  151.8727  -97.2123 H   0  0  0  0  0  0  0  0  0  0  0  0
   47.6492  151.8118  -95.2637 H   0  0  0  0  0  0  0  0  0  0  0  0
   46.6756  153.3016  -95.1275 H   0  0  0  0  0  0  0  0  0  0  0  0
   47.6092  152.6077  -92.8604 H   0  0  0  0  0  0  0  0  0  0  0  0
   45.8215  152.5370  -92.8544 H   0  0  0  0  0  0  0  0  0  0  0  0
   47.7631  150.1893  -93.3239 H   0  0  0  0  0  0  0  0  0  0  0  0
   47.6262  150.8187  -90.9672 H   0  0  0  0  0  0  0  0  0  0  0  0
   45.8240  150.6001  -91.0315 H   0  0  0  0  0  0  0  0  0  0  0  0
   46.9538  148.7360  -90.1076 H   0  0  0  0  0  0  0  0  0  0  0  0
   46.1489  148.3458  -91.5320 H   0  0  0  0  0  0  0  0  0  0  0  0
   48.6253  145.9459  -97.8228 H   0  0  0  0  0  0  0  0  0  0  0  0
   47.9570  143.5990  -96.3852 H   0  0  0  0  0  0  0  0  0  0  0  0
   47.1109  143.7246  -97.8335 H   0  0  0  0  0  0  0  0  0  0  0  0
   47.5131  145.3674  -94.9951 H   0  0  0  0  0  0  0  0  0  0  0  0
   49.2541  145.4894  -95.4376 H   0  0  0  0  0  0  0  0  0  0  0  0
   48.9274  147.8859  -96.1393 H   0  0  0  0  0  0  0  0  0  0  0  0
   47.9694  147.1794  -93.4487 H   0  0  0  0  0  0  0  0  0  0  0  0
   49.5090  147.6570  -93.9289 H   0  0  0  0  0  0  0  0  0  0  0  0
   45.9729  147.5006  -95.2261 H   0  0  0  0  0  0  0  0  0  0  0  0
   47.1534  148.0052  -98.0478 H   0  0  0  0  0  0  0  0  0  0  0  0
   44.5851  148.1990  -96.9322 H   0  0  0  0  0  0  0  0  0  0  0  0
   45.7378  145.4955  -96.8821 H   0  0  0  0  0  0  0  0  0  0  0  0
   44.6910  144.1853  -98.5056 H   0  0  0  0  0  0  0  0  0  0  0  0
   44.4764  143.5198 -100.9537 H   0  0  0  0  0  0  0  0  0  0  0  0
   46.5667  143.1607  -99.4493 H   0  0  0  0  0  0  0  0  0  0  0  0
   46.4754  145.8212 -101.4448 H   0  0  0  0  0  0  0  0  0  0  0  0
   45.6058  143.6004 -103.0392 H   0  0  0  0  0  0  0  0  0  0  0  0
   42.6743  145.1418 -101.6335 H   0  0  0  0  0  0  0  0  0  0  0  0
   44.7466  147.5812 -100.3233 H   0  0  0  0  0  0  0  0  0  0  0  0
   42.9946  147.4044 -100.7064 H   0  0  0  0  0  0  0  0  0  0  0  0
   44.5550  148.2786 -102.5276 H   0  0  0  0  0  0  0  0  0  0  0  0
   45.3235  147.1086 -103.6533 H   0  0  0  0  0  0  0  0  0  0  0  0
   43.5392  147.3155 -103.6533 H   0  0  0  0  0  0  0  0  0  0  0  0
   47.9968  144.4938 -102.5573 H   0  0  0  0  0  0  0  0  0  0  0  0
   47.5583  143.6113 -104.0592 H   0  0  0  0  0  0  0  0  0  0  0  0
   47.6252  145.4064 -104.0592 H   0  0  0  0  0  0  0  0  0  0  0  0
  2  1  1  0
  3  1  1  0
  4  3  1  0
  5  3  1  0
  6  5  1  0
  7  6  1  0
  8  7  1  0
  8  1  1  0
  9  7  1  0
 10  9  1  0
 12 11  1  0
 13 11  1  0
 14 13  1  0
 15 14  1  0
 16 14  1  0
 16  2  1  0
 17 16  1  0
 18 17  1  0
 19 11  1  0
 19 17  1  0
 20 19  1  0
 21 20  1  0
 22 21  1  0
 23 22  1  0
 24 22  1  0
 25 24  1  0
 26 24  1  0
 26 27  1  6
 28 26  1  0
 29 28  1  0
 29 21  1  0
 30 26  1  0
 31 25  1  0
  1 32  1  6
  3 33  1  1
  4 34  1  0
  4 35  1  0
  5 36  1  0
  5 37  1  0
  6 38  1  0
  6 39  1  0
  7 40  1  6
  9 41  1  0
  9 42  1  0
 10 43  1  0
 10 44  1  0
 11 45  1  6
 12 46  1  0
 12 47  1  0
 13 48  1  0
 13 49  1  0
 14 50  1  6
 15 51  1  0
 15 52  1  0
 16 53  1  1
 17 54  1  6
 18 55  1  0
 19 56  1  1
 21 57  1  1
 22 58  1  6
 23 59  1  0
 24 60  1  1
 25 61  1  0
 27 62  1  0
 28 63  1  0
 28 64  1  0
 30 65  1  0
 30 66  1  0
 30 67  1  0
 31 68  1  0
 31 69  1  0
 31 70  1  0
M  END
$$$$
