PDB_DB00558_82
     RDKit          3D

 43 43  0  0  0  0  0  0  0  0999 V2000
   27.4390   -0.7610   81.8980 C   0  0  0  0  0  0  0  0  0  0  0  0
   28.3570   -1.2660   82.6030 O   0  0  0  0  0  0  0  0  0  0  0  0
   27.3900    0.4860   81.7160 O   0  0  0  0  0  0  0  0  0  0  0  0
   26.5210   -1.5680   81.2960 C   0  0  0  0  0  0  0  0  0  0  0  0
   25.1500   -0.9370   80.9520 C   0  0  0  0  0  0  0  0  0  0  0  0
   24.2090   -1.8950   80.3300 C   0  0  1  0  0  0  0  0  0  0  0  0
   24.2190   -3.1950   80.8850 C   0  0  1  0  0  0  0  0  0  0  0  0
   23.4550   -4.1790   79.9470 N   0  0  0  0  0  0  0  0  0  0  0  0
   22.1740   -4.6610   80.3720 C   0  0  0  0  0  0  0  0  0  0  0  0
   21.7240   -4.2960   81.4460 O   0  0  0  0  0  0  0  0  0  0  0  0
   21.4010   -5.6080   79.4930 C   0  0  0  0  0  0  0  0  0  0  0  0
   25.5340   -3.7240   81.1990 C   0  0  1  0  0  0  0  0  0  0  0  0
   26.2550   -2.8160   82.0530 O   0  0  0  0  0  0  0  0  0  0  0  0
   25.4660   -5.0630   81.9190 C   0  0  2  0  0  0  0  0  0  0  0  0
   25.1010   -4.8190   83.2090 O   0  0  0  0  0  0  0  0  0  0  0  0
   26.8380   -5.7080   81.9610 C   0  0  2  0  0  0  0  0  0  0  0  0
   27.2960   -5.8400   80.6690 O   0  0  0  0  0  0  0  0  0  0  0  0
   26.8530   -7.0380   82.6980 C   0  0  0  0  0  0  0  0  0  0  0  0
   26.1030   -8.0850   82.1530 O   0  0  0  0  0  0  0  0  0  0  0  0
   22.7600   -1.3300   80.3390 N   0  0  0  0  0  0  0  0  0  0  0  0
   21.8580   -1.4040   79.2000 C   0  0  0  0  0  0  0  0  0  0  0  0
   22.2330   -1.9560   78.0510 N   0  0  0  0  0  0  0  0  0  0  0  0
   20.5910   -1.1640   79.4150 N   0  0  0  0  0  0  0  0  0  0  0  0
   28.3915   -2.2454   82.7432 H   0  0  0  0  0  0  0  0  0  0  0  0
   24.9006    0.1160   81.1497 H   0  0  0  0  0  0  0  0  0  0  0  0
   24.5729   -2.0096   79.2983 H   0  0  0  0  0  0  0  0  0  0  0  0
   23.7092   -3.1006   81.8551 H   0  0  0  0  0  0  0  0  0  0  0  0
   23.8598   -4.4743   79.0471 H   0  0  0  0  0  0  0  0  0  0  0  0
   20.8299   -6.3077   80.1210 H   0  0  0  0  0  0  0  0  0  0  0  0
   20.7084   -5.0362   78.8579 H   0  0  0  0  0  0  0  0  0  0  0  0
   22.1000   -6.1720   78.8579 H   0  0  0  0  0  0  0  0  0  0  0  0
   26.0449   -3.8547   80.2336 H   0  0  0  0  0  0  0  0  0  0  0  0
   24.7568   -5.7225   81.3973 H   0  0  0  0  0  0  0  0  0  0  0  0
   25.7472   -5.2510   83.8221 H   0  0  0  0  0  0  0  0  0  0  0  0
   27.5108   -5.0555   82.5369 H   0  0  0  0  0  0  0  0  0  0  0  0
   28.2472   -6.1141   80.6825 H   0  0  0  0  0  0  0  0  0  0  0  0
   27.8991   -7.3742   82.7505 H   0  0  0  0  0  0  0  0  0  0  0  0
   26.3782   -6.8273   83.6676 H   0  0  0  0  0  0  0  0  0  0  0  0
   25.7142   -8.6278   82.8840 H   0  0  0  0  0  0  0  0  0  0  0  0
   21.5748   -1.9957   77.2597 H   0  0  0  0  0  0  0  0  0  0  0  0
   23.1819   -2.3442   77.9516 H   0  0  0  0  0  0  0  0  0  0  0  0
   19.9193   -1.2061   78.6353 H   0  0  0  0  0  0  0  0  0  0  0  0
   20.2645   -0.9328   80.3641 H   0  0  0  0  0  0  0  0  0  0  0  0
  1  2  1  0
  1  3  2  0
  1  4  1  0
  4  5  2  0
  5  6  1  0
  6  7  1  0
  7  8  1  0
  8  9  1  0
  9 10  2  0
  9 11  1  0
  7 12  1  0
  4 13  1  0
 12 13  1  0
 12 14  1  0
 14 15  1  0
 14 16  1  0
 16 17  1  0
 16 18  1  0
 18 19  1  0
  6 20  1  0
 20 21  2  3
 21 22  1  0
 21 23  1  0
  2 24  1  0
  5 25  1  0
  6 26  1  6
  7 27  1  1
  8 28  1  0
 11 29  1  0
 11 30  1  0
 11 31  1  0
 12 32  1  6
 14 33  1  6
 15 34  1  0
 16 35  1  1
 17 36  1  0
 18 37  1  0
 18 38  1  0
 19 39  1  0
 22 40  1  0
 22 41  1  0
 23 42  1  0
 23 43  1  0
M  END
$$$$
