PDB_DB00188_99
     RDKit          3D

 53 54  0  0  0  0  0  0  0  0999 V2000
   61.7340  201.7730   43.2890 N   0  0  0  0  0  0  0  0  0  0  0  0
   62.5890  202.8250   43.1710 C   0  0  0  0  0  0  0  0  0  0  0  0
   63.9470  202.5900   42.8900 C   0  0  0  0  0  0  0  0  0  0  0  0
   64.4600  201.3450   42.7220 N   0  0  0  0  0  0  0  0  0  0  0  0
   63.6120  200.3200   42.8670 C   0  0  0  0  0  0  0  0  0  0  0  0
   62.2390  200.5230   43.1560 C   0  0  0  0  0  0  0  0  0  0  0  0
   62.1410  204.2540   43.3480 C   0  0  0  0  0  0  0  0  0  0  0  0
   61.5450  204.8220   42.4500 O   0  0  0  0  0  0  0  0  0  0  0  0
   62.3740  204.8300   44.5330 N   0  0  0  0  0  0  0  0  0  0  0  0
   62.1100  206.2070   44.8310 C   0  0  1  0  0  0  0  0  0  0  0  0
   61.1550  206.3360   45.9560 C   0  0  0  0  0  0  0  0  0  0  0  0
   60.8450  207.7800   46.2530 C   0  0  0  0  0  0  0  0  0  0  0  0
   60.0590  208.5470   45.3620 C   0  0  0  0  0  0  0  0  0  0  0  0
   59.7390  209.8960   45.6570 C   0  0  0  0  0  0  0  0  0  0  0  0
   60.1930  210.4670   46.8590 C   0  0  0  0  0  0  0  0  0  0  0  0
   60.9570  209.6940   47.7670 C   0  0  0  0  0  0  0  0  0  0  0  0
   61.2830  208.3450   47.4730 C   0  0  0  0  0  0  0  0  0  0  0  0
   63.4770  206.8670   45.0710 C   0  0  0  0  0  0  0  0  0  0  0  0
   64.3470  206.2990   45.7100 O   0  0  0  0  0  0  0  0  0  0  0  0
   63.7180  208.0870   44.5410 N   0  0  0  0  0  0  0  0  0  0  0  0
   64.9880  208.7730   44.6530 C   0  0  1  0  0  0  0  0  0  0  0  0
   65.4860  209.0560   43.2250 C   0  0  0  0  0  0  0  0  0  0  0  0
   65.7620  207.8070   42.3800 C   0  0  0  0  0  0  0  0  0  0  0  0
   66.5220  206.6620   43.0200 C   0  0  0  0  0  0  0  0  0  0  0  0
   66.3400  208.0960   40.9800 C   0  0  0  0  0  0  0  0  0  0  0  0
   64.8380  210.1380   45.4530 B   0  0  0  0  0  0  0  0  0  0  0  0
   64.2610  209.9560   46.8980 O   0  0  0  0  0  0  0  0  0  0  0  0
   63.8220  210.9740   44.7070 O   0  0  0  0  0  0  0  0  0  0  0  0
   64.6229  203.4534   42.8026 H   0  0  0  0  0  0  0  0  0  0  0  0
   63.9903  199.2927   42.7591 H   0  0  0  0  0  0  0  0  0  0  0  0
   61.5749  199.6540   43.2738 H   0  0  0  0  0  0  0  0  0  0  0  0
   62.7700  204.2441   45.2819 H   0  0  0  0  0  0  0  0  0  0  0  0
   61.6076  206.7271   44.0021 H   0  0  0  0  0  0  0  0  0  0  0  0
   60.2215  205.8164   45.6940 H   0  0  0  0  0  0  0  0  0  0  0  0
   61.6131  205.8898   46.8510 H   0  0  0  0  0  0  0  0  0  0  0  0
   59.6921  208.0919   44.4302 H   0  0  0  0  0  0  0  0  0  0  0  0
   59.1406  210.4911   44.9515 H   0  0  0  0  0  0  0  0  0  0  0  0
   59.9546  211.5148   47.0943 H   0  0  0  0  0  0  0  0  0  0  0  0
   61.3011  210.1442   48.7098 H   0  0  0  0  0  0  0  0  0  0  0  0
   61.8693  207.7459   48.1853 H   0  0  0  0  0  0  0  0  0  0  0  0
   62.9560  208.5543   44.0292 H   0  0  0  0  0  0  0  0  0  0  0  0
   65.7023  208.1457   45.2065 H   0  0  0  0  0  0  0  0  0  0  0  0
   64.7220  209.6561   42.7090 H   0  0  0  0  0  0  0  0  0  0  0  0
   66.4491  209.5767   43.3309 H   0  0  0  0  0  0  0  0  0  0  0  0
   64.7293  207.4408   42.2830 H   0  0  0  0  0  0  0  0  0  0  0  0
   66.4637  206.7498   44.1149 H   0  0  0  0  0  0  0  0  0  0  0  0
   66.0786  205.7060   42.7047 H   0  0  0  0  0  0  0  0  0  0  0  0
   67.5752  206.6994   42.7047 H   0  0  0  0  0  0  0  0  0  0  0  0
   67.3197  208.5858   41.0817 H   0  0  0  0  0  0  0  0  0  0  0  0
   66.4580  207.1508   40.4298 H   0  0  0  0  0  0  0  0  0  0  0  0
   65.6547  208.7575   40.4298 H   0  0  0  0  0  0  0  0  0  0  0  0
   64.9605  210.1767   47.5629 H   0  0  0  0  0  0  0  0  0  0  0  0
   63.2448  211.4489   45.3562 H   0  0  0  0  0  0  0  0  0  0  0  0
  1  2  2  0
  2  3  1  0
  3  4  2  0
  4  5  1  0
  1  6  1  0
  5  6  2  0
  2  7  1  0
  7  8  2  0
  7  9  1  0
  9 10  1  0
 10 11  1  0
 11 12  1  0
 12 13  2  0
 13 14  1  0
 14 15  2  0
 15 16  1  0
 12 17  1  0
 16 17  2  0
 10 18  1  0
 18 19  2  0
 18 20  1  0
 20 21  1  0
 21 22  1  0
 22 23  1  0
 23 24  1  0
 23 25  1  0
 21 26  1  0
 26 27  1  0
 26 28  1  0
  3 29  1  0
  5 30  1  0
  6 31  1  0
  9 32  1  0
 10 33  1  6
 11 34  1  0
 11 35  1  0
 13 36  1  0
 14 37  1  0
 15 38  1  0
 16 39  1  0
 17 40  1  0
 20 41  1  0
 21 42  1  1
 22 43  1  0
 22 44  1  0
 23 45  1  0
 24 46  1  0
 24 47  1  0
 24 48  1  0
 25 49  1  0
 25 50  1  0
 25 51  1  0
 27 52  1  0
 28 53  1  0
M  END
$$$$
