PDB_DB01051_98
     RDKit          3D

 80 83  0  0  0  0  0  0  0  0999 V2000
   36.1590  -10.4240   12.1140 C   0  0  0  0  0  0  0  0  0  0  0  0
   35.8990  -11.8210   12.0800 O   0  0  0  0  0  0  0  0  0  0  0  0
   36.1290  -11.9020    7.5540 N   0  0  0  0  0  0  0  0  0  0  0  0
   36.2340  -12.8630    8.4390 C   0  0  0  0  0  0  0  0  0  0  0  0
   35.8550  -14.0020    8.2860 O   0  0  0  0  0  0  0  0  0  0  0  0
   36.8270  -12.4170    9.5470 O   0  0  0  0  0  0  0  0  0  0  0  0
   37.0560  -12.6430   11.9530 C   0  0  2  0  0  0  0  0  0  0  0  0
   37.0580  -13.3660   10.6100 C   0  0  2  0  0  0  0  0  0  0  0  0
   38.3270  -14.2000   10.4390 C   0  0  1  0  0  0  0  0  0  0  0  0
   39.5250  -13.4200   10.4610 O   0  0  0  0  0  0  0  0  0  0  0  0
   38.3600  -15.2810   11.5180 C   0  0  1  0  0  0  0  0  0  0  0  0
   38.1690  -14.7330   12.8370 O   0  0  0  0  0  0  0  0  0  0  0  0
   37.1850  -13.7020   13.1400 C   0  0  0  0  0  0  0  0  0  0  0  0
   35.8690  -14.4010   13.4570 C   0  0  0  0  0  0  0  0  0  0  0  0
   37.7030  -12.9840   14.3720 C   0  0  0  0  0  0  0  0  0  0  0  0
   37.2900  -16.1490   11.2200 O   0  0  0  0  0  0  0  0  0  0  0  0
   37.2170  -17.3910   11.8060 C   0  0  0  0  0  0  0  0  0  0  0  0
   36.0930  -18.1380   11.4210 C   0  0  0  0  0  0  0  0  0  0  0  0
   35.1110  -17.5980   10.4080 C   0  0  0  0  0  0  0  0  0  0  0  0
   35.9310  -19.3960   12.0050 C   0  0  0  0  0  0  0  0  0  0  0  0
   36.8450  -19.9140   12.9310 C   0  0  0  0  0  0  0  0  0  0  0  0
   37.9510  -19.1340   13.2790 C   0  0  0  0  0  0  0  0  0  0  0  0
   38.1440  -17.8830   12.7250 C   0  0  0  0  0  0  0  0  0  0  0  0
   34.8170  -20.1110   11.6000 O   0  0  0  0  0  0  0  0  0  0  0  0
   34.5280  -21.3720   12.0610 C   0  0  0  0  0  0  0  0  0  0  0  0
   33.5510  -21.8770   11.5720 O   0  0  0  0  0  0  0  0  0  0  0  0
   35.5000  -21.9640   13.0940 C   0  0  0  0  0  0  0  0  0  0  0  0
   36.5940  -21.2470   13.4790 C   0  0  0  0  0  0  0  0  0  0  0  0
   37.4580  -21.6900   14.4010 O   0  0  0  0  0  0  0  0  0  0  0  0
   35.0550  -23.2000   13.6470 N   0  0  0  0  0  0  0  0  0  0  0  0
   33.7990  -23.4650   14.1540 C   0  0  0  0  0  0  0  0  0  0  0  0
   33.1430  -24.4450   13.8090 O   0  0  0  0  0  0  0  0  0  0  0  0
   33.2620  -22.4840   15.1450 C   0  0  0  0  0  0  0  0  0  0  0  0
   34.1170  -21.6630   15.8760 C   0  0  0  0  0  0  0  0  0  0  0  0
   33.6310  -20.7710   16.8320 C   0  0  0  0  0  0  0  0  0  0  0  0
   32.2480  -20.7100   17.0410 C   0  0  0  0  0  0  0  0  0  0  0  0
   31.7420  -19.8440   17.9550 O   0  0  0  0  0  0  0  0  0  0  0  0
   31.3850  -21.5200   16.3020 C   0  0  0  0  0  0  0  0  0  0  0  0
   31.8900  -22.3950   15.3590 C   0  0  0  0  0  0  0  0  0  0  0  0
   34.6270  -19.9110   17.5800 C   0  0  0  0  0  0  0  0  0  0  0  0
   34.4020  -18.4600   17.2560 C   0  0  0  0  0  0  0  0  0  0  0  0
   35.2240  -17.6240   16.6500 C   0  0  0  0  0  0  0  0  0  0  0  0
   36.5910  -18.0010   16.1670 C   0  0  0  0  0  0  0  0  0  0  0  0
   34.8490  -16.2000   16.4000 C   0  0  0  0  0  0  0  0  0  0  0  0
   36.2215  -10.0880   13.1596 H   0  0  0  0  0  0  0  0  0  0  0  0
   37.1113  -10.2158   11.6044 H   0  0  0  0  0  0  0  0  0  0  0  0
   35.3454   -9.8871   11.6044 H   0  0  0  0  0  0  0  0  0  0  0  0
   36.4814  -10.9593    7.7731 H   0  0  0  0  0  0  0  0  0  0  0  0
   35.6941  -12.0895    6.6394 H   0  0  0  0  0  0  0  0  0  0  0  0
   37.9271  -11.9737   12.0099 H   0  0  0  0  0  0  0  0  0  0  0  0
   36.2308  -14.0900   10.5701 H   0  0  0  0  0  0  0  0  0  0  0  0
   38.2921  -14.6598    9.4403 H   0  0  0  0  0  0  0  0  0  0  0  0
   39.7895  -13.2478   11.3993 H   0  0  0  0  0  0  0  0  0  0  0  0
   39.3371  -15.7862   11.5205 H   0  0  0  0  0  0  0  0  0  0  0  0
   35.7428  -14.4680   14.5477 H   0  0  0  0  0  0  0  0  0  0  0  0
   35.0357  -13.8267   13.0261 H   0  0  0  0  0  0  0  0  0  0  0  0
   35.8783  -15.4130   13.0261 H   0  0  0  0  0  0  0  0  0  0  0  0
   37.3354  -13.4935   15.2750 H   0  0  0  0  0  0  0  0  0  0  0  0
   38.8029  -12.9945   14.3671 H   0  0  0  0  0  0  0  0  0  0  0  0
   37.3462  -11.9435   14.3671 H   0  0  0  0  0  0  0  0  0  0  0  0
   34.2633  -17.1318   10.9315 H   0  0  0  0  0  0  0  0  0  0  0  0
   35.6101  -16.8475    9.7774 H   0  0  0  0  0  0  0  0  0  0  0  0
   34.7446  -18.4215    9.7774 H   0  0  0  0  0  0  0  0  0  0  0  0
   38.6798  -19.5222   14.0058 H   0  0  0  0  0  0  0  0  0  0  0  0
   39.0205  -17.2806   13.0060 H   0  0  0  0  0  0  0  0  0  0  0  0
   37.3350  -22.5855   14.8048 H   0  0  0  0  0  0  0  0  0  0  0  0
   35.7376  -23.9709   13.6706 H   0  0  0  0  0  0  0  0  0  0  0  0
   35.2006  -21.7192   15.6953 H   0  0  0  0  0  0  0  0  0  0  0  0
   30.7646  -19.7982   18.1054 H   0  0  0  0  0  0  0  0  0  0  0  0
   30.2995  -21.4619   16.4705 H   0  0  0  0  0  0  0  0  0  0  0  0
   31.2034  -23.0247   14.7742 H   0  0  0  0  0  0  0  0  0  0  0  0
   34.5015  -20.0660   18.6618 H   0  0  0  0  0  0  0  0  0  0  0  0
   35.6460  -20.1939   17.2773 H   0  0  0  0  0  0  0  0  0  0  0  0
   33.4311  -18.0433   17.5623 H   0  0  0  0  0  0  0  0  0  0  0  0
   37.2479  -18.1822   17.0305 H   0  0  0  0  0  0  0  0  0  0  0  0
   36.5256  -18.9146   15.5579 H   0  0  0  0  0  0  0  0  0  0  0  0
   37.0032  -17.1830   15.5579 H   0  0  0  0  0  0  0  0  0  0  0  0
   34.7127  -15.6826   17.3611 H   0  0  0  0  0  0  0  0  0  0  0  0
   35.6476  -15.7056   15.8274 H   0  0  0  0  0  0  0  0  0  0  0  0
   33.9105  -16.1631   15.8274 H   0  0  0  0  0  0  0  0  0  0  0  0
  1  2  1  0
  3  4  1  0
  4  5  2  0
  4  6  1  0
  2  7  1  0
  6  8  1  0
  7  8  1  0
  8  9  1  0
  9 10  1  0
  9 11  1  0
 11 12  1  0
  7 13  1  0
 12 13  1  0
 13 14  1  0
 13 15  1  0
 11 16  1  0
 16 17  1  0
 17 18  2  0
 18 19  1  0
 18 20  1  0
 20 21  2  0
 21 22  1  0
 17 23  1  0
 22 23  2  0
 20 24  1  0
 24 25  1  0
 25 26  2  0
 25 27  1  0
 21 28  1  0
 27 28  2  0
 28 29  1  0
 27 30  1  0
 30 31  1  0
 31 32  2  0
 31 33  1  0
 33 34  2  0
 34 35  1  0
 35 36  2  0
 36 37  1  0
 36 38  1  0
 33 39  1  0
 38 39  2  0
 35 40  1  0
 40 41  1  0
 41 42  2  3
 42 43  1  0
 42 44  1  0
  1 45  1  0
  1 46  1  0
  1 47  1  0
  3 48  1  0
  3 49  1  0
  7 50  1  6
  8 51  1  1
  9 52  1  6
 10 53  1  0
 11 54  1  1
 14 55  1  0
 14 56  1  0
 14 57  1  0
 15 58  1  0
 15 59  1  0
 15 60  1  0
 19 61  1  0
 19 62  1  0
 19 63  1  0
 22 64  1  0
 23 65  1  0
 29 66  1  0
 30 67  1  0
 34 68  1  0
 37 69  1  0
 38 70  1  0
 39 71  1  0
 40 72  1  0
 40 73  1  0
 41 74  1  0
 43 75  1  0
 43 76  1  0
 43 77  1  0
 44 78  1  0
 44 79  1  0
 44 80  1  0
M  END
$$$$
