PDB_DB00396_95
     RDKit          3D

 53 56  0  0  0  0  0  0  0  0999 V2000
   17.7710   50.4110   18.4610 C   0  0  0  0  0  0  0  0  0  0  0  0
   16.7670   50.3710   19.6330 C   0  0  0  0  0  0  0  0  0  0  0  0
   15.7480   49.2340   19.4790 C   0  0  0  0  0  0  0  0  0  0  0  0
   14.6660   49.3270   20.0980 O   0  0  0  0  0  0  0  0  0  0  0  0
   16.0370   48.0410   18.6530 C   0  0  0  0  0  0  0  0  0  0  0  0
   17.1710   47.9040   17.9790 C   0  0  0  0  0  0  0  0  0  0  0  0
   17.4450   46.5820   17.1880 C   0  0  0  0  0  0  0  0  0  0  0  0
   18.1080   46.8420   15.8210 C   0  0  0  0  0  0  0  0  0  0  0  0
   19.3080   47.8510   15.8320 C   0  0  2  0  0  0  0  0  0  0  0  0
   18.8150   49.2160   16.4800 C   0  0  1  0  0  0  0  0  0  0  0  0
   18.3020   49.0200   17.9640 C   0  0  1  0  0  0  0  0  0  0  0  0
   19.9610   50.2980   16.4580 C   0  0  0  0  0  0  0  0  0  0  0  0
   20.4870   50.4920   14.9950 C   0  0  0  0  0  0  0  0  0  0  0  0
   21.0190   49.1460   14.3510 C   0  0  1  0  0  0  0  0  0  0  0  0
   19.8150   48.1150   14.3800 C   0  0  1  0  0  0  0  0  0  0  0  0
   20.3480   46.9160   13.5280 C   0  0  0  0  0  0  0  0  0  0  0  0
   21.1410   47.6490   12.3860 C   0  0  0  0  0  0  0  0  0  0  0  0
   21.2710   49.1690   12.8100 C   0  0  2  0  0  0  0  0  0  0  0  0
   22.2900   48.6010   15.1180 C   0  0  0  0  0  0  0  0  0  0  0  0
   19.4360   48.5130   18.9590 C   0  0  0  0  0  0  0  0  0  0  0  0
   22.6560   49.7840   12.4190 C   0  0  0  0  0  0  0  0  0  0  0  0
   23.5110   49.0550   11.9600 O   0  0  0  0  0  0  0  0  0  0  0  0
   22.9440   51.2610   12.6030 C   0  0  0  0  0  0  0  0  0  0  0  0
   17.2777   50.9063   17.6117 H   0  0  0  0  0  0  0  0  0  0  0  0
   18.6527   50.9464   18.8431 H   0  0  0  0  0  0  0  0  0  0  0  0
   17.3222   50.2255   20.5714 H   0  0  0  0  0  0  0  0  0  0  0  0
   16.2154   51.3227   19.6403 H   0  0  0  0  0  0  0  0  0  0  0  0
   15.2853   47.2399   18.5959 H   0  0  0  0  0  0  0  0  0  0  0  0
   18.1102   45.9431   17.7874 H   0  0  0  0  0  0  0  0  0  0  0  0
   16.4763   46.0945   17.0037 H   0  0  0  0  0  0  0  0  0  0  0  0
   18.4777   45.8803   15.4356 H   0  0  0  0  0  0  0  0  0  0  0  0
   17.3320   47.3036   15.1927 H   0  0  0  0  0  0  0  0  0  0  0  0
   20.1371   47.4264   16.4171 H   0  0  0  0  0  0  0  0  0  0  0  0
   17.9705   49.5669   15.8687 H   0  0  0  0  0  0  0  0  0  0  0  0
   19.5666   51.2539   16.8330 H   0  0  0  0  0  0  0  0  0  0  0  0
   20.7895   49.9595   17.0976 H   0  0  0  0  0  0  0  0  0  0  0  0
   19.6650   50.8779   14.3742 H   0  0  0  0  0  0  0  0  0  0  0  0
   21.3314   51.1957   15.0370 H   0  0  0  0  0  0  0  0  0  0  0  0
   18.8718   48.4620   13.9328 H   0  0  0  0  0  0  0  0  0  0  0  0
   21.0101   46.2681   14.1212 H   0  0  0  0  0  0  0  0  0  0  0  0
   19.5550   46.2494   13.1581 H   0  0  0  0  0  0  0  0  0  0  0  0
   22.1398   47.2020   12.2736 H   0  0  0  0  0  0  0  0  0  0  0  0
   20.6171   47.5548   11.4234 H   0  0  0  0  0  0  0  0  0  0  0  0
   20.5545   49.8187   12.2860 H   0  0  0  0  0  0  0  0  0  0  0  0
   22.1224   48.6729   16.2028 H   0  0  0  0  0  0  0  0  0  0  0  0
   22.4619   47.5501   14.8424 H   0  0  0  0  0  0  0  0  0  0  0  0
   23.1698   49.2010   14.8424 H   0  0  0  0  0  0  0  0  0  0  0  0
   19.1054   48.6608   19.9977 H   0  0  0  0  0  0  0  0  0  0  0  0
   19.6266   47.4440   18.7835 H   0  0  0  0  0  0  0  0  0  0  0  0
   20.3598   49.0838   18.7835 H   0  0  0  0  0  0  0  0  0  0  0  0
   22.9896   51.4947   13.6769 H   0  0  0  0  0  0  0  0  0  0  0  0
   23.9072   51.5081   12.1328 H   0  0  0  0  0  0  0  0  0  0  0  0
   22.1442   51.8519   12.1328 H   0  0  0  0  0  0  0  0  0  0  0  0
  1  2  1  0
  2  3  1  0
  3  4  2  0
  3  5  1  0
  5  6  2  0
  6  7  1  0
  7  8  1  0
  8  9  1  0
  9 10  1  0
  1 11  1  0
  6 11  1  0
 10 11  1  0
 10 12  1  0
 12 13  1  0
 13 14  1  0
  9 15  1  0
 14 15  1  0
 15 16  1  0
 16 17  1  0
 14 18  1  0
 17 18  1  0
 14 19  1  1
 11 20  1  1
 18 21  1  0
 21 22  2  0
 21 23  1  0
  1 24  1  0
  1 25  1  0
  2 26  1  0
  2 27  1  0
  5 28  1  0
  7 29  1  0
  7 30  1  0
  8 31  1  0
  8 32  1  0
  9 33  1  1
 10 34  1  6
 12 35  1  0
 12 36  1  0
 13 37  1  0
 13 38  1  0
 15 39  1  6
 16 40  1  0
 16 41  1  0
 17 42  1  0
 17 43  1  0
 18 44  1  6
 19 45  1  0
 19 46  1  0
 19 47  1  0
 20 48  1  0
 20 49  1  0
 20 50  1  0
 23 51  1  0
 23 52  1  0
 23 53  1  0
M  END
$$$$
