PDB_DB00560_95
     RDKit          3D

 81 84  0  0  0  0  0  0  0  0999 V2000
  -19.5540  201.8140   27.1260 C   0  0  0  0  0  0  0  0  0  0  0  0
  -19.0120  200.9300   28.2500 C   0  0  0  0  0  0  0  0  0  0  0  0
  -17.5990  201.3830   28.6220 C   0  0  0  0  0  0  0  0  0  0  0  0
  -19.9090  201.1060   29.4760 C   0  0  0  0  0  0  0  0  0  0  0  0
  -19.0110  199.5390   27.7830 N   0  0  0  0  0  0  0  0  0  0  0  0
  -18.6470  198.5710   28.8140 C   0  0  0  0  0  0  0  0  0  0  0  0
  -17.4020  197.7730   28.4740 C   0  0  0  0  0  0  0  0  0  0  0  0
  -16.3090  198.2590   28.7030 O   0  0  0  0  0  0  0  0  0  0  0  0
  -17.5470  196.5470   27.9530 N   0  0  0  0  0  0  0  0  0  0  0  0
  -17.4060  196.5250   26.5970 C   0  0  0  0  0  0  0  0  0  0  0  0
  -16.6180  197.4770   25.9470 C   0  0  0  0  0  0  0  0  0  0  0  0
  -16.4830  197.4430   24.5640 C   0  0  0  0  0  0  0  0  0  0  0  0
  -15.6990  198.3850   23.8690 N   0  0  0  0  0  0  0  0  0  0  0  0
  -14.2830  198.0760   24.0400 C   0  0  0  0  0  0  0  0  0  0  0  0
  -15.9440  199.7440   24.3340 C   0  0  0  0  0  0  0  0  0  0  0  0
  -17.1190  196.4600   23.8340 C   0  0  0  0  0  0  0  0  0  0  0  0
  -16.8900  196.4940   22.3450 C   0  0  0  0  0  0  0  0  0  0  0  0
  -17.9910  195.8310   21.5430 C   0  0  1  0  0  0  0  0  0  0  0  0
  -17.5070  195.6650   20.1110 C   0  0  0  0  0  0  0  0  0  0  0  0
  -18.6800  195.1180   19.3190 C   0  0  1  0  0  0  0  0  0  0  0  0
  -18.3810  195.3130   17.8170 C   0  0  2  0  0  0  0  0  0  0  0  0
  -19.5370  195.8210   17.0480 N   0  0  0  0  0  0  0  0  0  0  0  0
  -20.1150  197.0030   17.6750 C   0  0  0  0  0  0  0  0  0  0  0  0
  -20.5530  194.8160   16.7510 C   0  0  0  0  0  0  0  0  0  0  0  0
  -17.7100  194.1190   17.1480 C   0  0  0  0  0  0  0  0  0  0  0  0
  -17.4730  194.1540   15.8290 O   0  0  0  0  0  0  0  0  0  0  0  0
  -17.3390  193.0280   17.8370 C   0  0  0  0  0  0  0  0  0  0  0  0
  -16.7030  191.9090   17.1130 C   0  0  0  0  0  0  0  0  0  0  0  0
  -16.8340  191.8340   15.8960 O   0  0  0  0  0  0  0  0  0  0  0  0
  -15.9980  190.9930   17.7740 N   0  0  0  0  0  0  0  0  0  0  0  0
  -17.5960  192.9910   19.2830 C   0  0  0  0  0  0  0  0  0  0  0  0
  -16.7900  192.4880   20.0600 O   0  0  0  0  0  0  0  0  0  0  0  0
  -18.8470  193.6760   19.7920 C   0  0  2  0  0  0  0  0  0  0  0  0
  -20.0280  193.1310   19.1740 O   0  0  0  0  0  0  0  0  0  0  0  0
  -18.9780  193.5790   21.3220 C   0  0  0  0  0  0  0  0  0  0  0  0
  -19.6800  192.5800   21.8810 O   0  0  0  0  0  0  0  0  0  0  0  0
  -18.4650  194.5220   22.1350 C   0  0  0  0  0  0  0  0  0  0  0  0
  -18.5780  194.4400   23.6010 C   0  0  0  0  0  0  0  0  0  0  0  0
  -19.2350  193.5450   24.1170 O   0  0  0  0  0  0  0  0  0  0  0  0
  -17.9160  195.5010   24.4530 C   0  0  0  0  0  0  0  0  0  0  0  0
  -18.0450  195.5320   25.8490 C   0  0  0  0  0  0  0  0  0  0  0  0
  -18.7800  194.5900   26.5170 O   0  0  0  0  0  0  0  0  0  0  0  0
  -20.0824  202.6758   27.5597 H   0  0  0  0  0  0  0  0  0  0  0  0
  -18.7191  202.1705   26.5049 H   0  0  0  0  0  0  0  0  0  0  0  0
  -20.2504  201.2316   26.5049 H   0  0  0  0  0  0  0  0  0  0  0  0
  -17.5005  201.4146   29.7171 H   0  0  0  0  0  0  0  0  0  0  0  0
  -16.8660  200.6748   28.2082 H   0  0  0  0  0  0  0  0  0  0  0  0
  -17.4144  202.3853   28.2082 H   0  0  0  0  0  0  0  0  0  0  0  0
  -19.3082  200.9881   30.3899 H   0  0  0  0  0  0  0  0  0  0  0  0
  -20.3591  202.1096   29.4600 H   0  0  0  0  0  0  0  0  0  0  0  0
  -20.7049  200.3469   29.4600 H   0  0  0  0  0  0  0  0  0  0  0  0
  -19.9556  199.3103   27.4420 H   0  0  0  0  0  0  0  0  0  0  0  0
  -18.4686  199.1128   29.7545 H   0  0  0  0  0  0  0  0  0  0  0  0
  -19.4792  197.8567   28.8992 H   0  0  0  0  0  0  0  0  0  0  0  0
  -17.7444  195.7087   28.5179 H   0  0  0  0  0  0  0  0  0  0  0  0
  -16.1034  198.2549   26.5302 H   0  0  0  0  0  0  0  0  0  0  0  0
  -14.0460  198.0243   25.1129 H   0  0  0  0  0  0  0  0  0  0  0  0
  -14.0594  197.1079   23.5680 H   0  0  0  0  0  0  0  0  0  0  0  0
  -13.6764  198.8629   23.5680 H   0  0  0  0  0  0  0  0  0  0  0  0
  -15.9469  199.7603   25.4339 H   0  0  0  0  0  0  0  0  0  0  0  0
  -15.1511  200.4082   23.9596 H   0  0  0  0  0  0  0  0  0  0  0  0
  -16.9189  200.0895   23.9596 H   0  0  0  0  0  0  0  0  0  0  0  0
  -16.8154  197.5451   22.0293 H   0  0  0  0  0  0  0  0  0  0  0  0
  -15.9662  195.9298   22.1494 H   0  0  0  0  0  0  0  0  0  0  0  0
  -18.8777  196.4815   21.5684 H   0  0  0  0  0  0  0  0  0  0  0  0
  -17.1922  196.6362   19.7015 H   0  0  0  0  0  0  0  0  0  0  0  0
  -16.6425  194.9868   20.0600 H   0  0  0  0  0  0  0  0  0  0  0  0
  -19.6403  195.6307   19.4771 H   0  0  0  0  0  0  0  0  0  0  0  0
  -17.6252  196.1120   17.7974 H   0  0  0  0  0  0  0  0  0  0  0  0
  -20.0644  196.8996   18.7690 H   0  0  0  0  0  0  0  0  0  0  0  0
  -19.5516  197.8953   17.3646 H   0  0  0  0  0  0  0  0  0  0  0  0
  -21.1652  197.1062   17.3646 H   0  0  0  0  0  0  0  0  0  0  0  0
  -20.9583  194.4151   17.6918 H   0  0  0  0  0  0  0  0  0  0  0  0
  -21.3648  195.2763   16.1687 H   0  0  0  0  0  0  0  0  0  0  0  0
  -20.1016  193.9992   16.1687 H   0  0  0  0  0  0  0  0  0  0  0  0
  -17.0378  193.3843   15.3837 H   0  0  0  0  0  0  0  0  0  0  0  0
  -15.5570  190.2150   17.2630 H   0  0  0  0  0  0  0  0  0  0  0  0
  -15.8937  191.0624   18.7964 H   0  0  0  0  0  0  0  0  0  0  0  0
  -20.6623  192.8383   19.8754 H   0  0  0  0  0  0  0  0  0  0  0  0
  -19.7609  192.5226   22.8660 H   0  0  0  0  0  0  0  0  0  0  0  0
  -18.8579  194.6307   27.5031 H   0  0  0  0  0  0  0  0  0  0  0  0
  2  1  1  0
  3  2  1  0
  4  2  1  0
  5  2  1  0
  6  5  1  0
  7  6  1  0
  8  7  2  0
  9  7  1  0
 10  9  1  0
 11 10  2  0
 12 11  1  0
 13 12  1  0
 14 13  1  0
 15 13  1  0
 16 12  2  0
 17 16  1  0
 18 17  1  0
 19 18  1  0
 20 19  1  0
 21 20  1  0
 22 21  1  0
 23 22  1  0
 24 22  1  0
 25 21  1  0
 26 25  1  0
 27 25  2  0
 28 27  1  0
 29 28  2  0
 30 28  1  0
 31 27  1  0
 32 31  2  0
 33 31  1  0
 33 20  1  0
 33 34  1  6
 35 33  1  0
 36 35  1  0
 37 35  2  0
 37 18  1  0
 38 37  1  0
 39 38  2  0
 40 38  1  0
 40 16  1  0
 41 40  2  0
 41 10  1  0
 42 41  1  0
  1 43  1  0
  1 44  1  0
  1 45  1  0
  3 46  1  0
  3 47  1  0
  3 48  1  0
  4 49  1  0
  4 50  1  0
  4 51  1  0
  5 52  1  0
  6 53  1  0
  6 54  1  0
  9 55  1  0
 11 56  1  0
 14 57  1  0
 14 58  1  0
 14 59  1  0
 15 60  1  0
 15 61  1  0
 15 62  1  0
 17 63  1  0
 17 64  1  0
 18 65  1  6
 19 66  1  0
 19 67  1  0
 20 68  1  1
 21 69  1  1
 23 70  1  0
 23 71  1  0
 23 72  1  0
 24 73  1  0
 24 74  1  0
 24 75  1  0
 26 76  1  0
 30 77  1  0
 30 78  1  0
 34 79  1  0
 36 80  1  0
 42 81  1  0
M  END
$$$$
