PDB_DB01041_97
     RDKit          3D

 29 31  0  0  0  0  0  0  0  0999 V2000
   47.6110  -34.1180  -68.9540 O   0  0  0  0  0  0  0  0  0  0  0  0
   48.0570  -34.6960  -67.9450 C   0  0  0  0  0  0  0  0  0  0  0  0
   47.4320  -35.7840  -67.4610 N   0  0  0  0  0  0  0  0  0  0  0  0
   47.8480  -36.4950  -66.3970 C   0  0  0  0  0  0  0  0  0  0  0  0
   47.2740  -37.5230  -66.0810 O   0  0  0  0  0  0  0  0  0  0  0  0
   49.0350  -36.0050  -65.6050 C   0  0  0  0  0  0  0  0  0  0  0  0
   49.2050  -34.4790  -65.7490 C   0  0  0  0  0  0  0  0  0  0  0  0
   49.3130  -34.2120  -67.2320 C   0  0  2  0  0  0  0  0  0  0  0  0
   49.5200  -32.8010  -67.5980 N   0  0  0  0  0  0  0  0  0  0  0  0
   49.5280  -28.2690  -68.8800 C   0  0  0  0  0  0  0  0  0  0  0  0
   48.6810  -29.2090  -68.2450 C   0  0  0  0  0  0  0  0  0  0  0  0
   49.1980  -30.5010  -68.1120 C   0  0  0  0  0  0  0  0  0  0  0  0
   50.4740  -30.8530  -68.5570 C   0  0  0  0  0  0  0  0  0  0  0  0
   47.3280  -31.8370  -66.9420 O   0  0  0  0  0  0  0  0  0  0  0  0
   51.7470  -33.0840  -68.4930 O   0  0  0  0  0  0  0  0  0  0  0  0
   51.3290  -29.9520  -69.1820 C   0  0  0  0  0  0  0  0  0  0  0  0
   50.8270  -28.6360  -69.3310 C   0  0  0  0  0  0  0  0  0  0  0  0
   50.5890  -32.2910  -68.2050 C   0  0  0  0  0  0  0  0  0  0  0  0
   48.6660  -31.7570  -67.5250 C   0  0  0  0  0  0  0  0  0  0  0  0
   46.5741  -36.0951  -67.9386 H   0  0  0  0  0  0  0  0  0  0  0  0
   48.8854  -36.2515  -64.5435 H   0  0  0  0  0  0  0  0  0  0  0  0
   49.9403  -36.4960  -65.9914 H   0  0  0  0  0  0  0  0  0  0  0  0
   48.3336  -33.9557  -65.3286 H   0  0  0  0  0  0  0  0  0  0  0  0
   50.0927  -34.1190  -65.2083 H   0  0  0  0  0  0  0  0  0  0  0  0
   50.2111  -34.7635  -67.5470 H   0  0  0  0  0  0  0  0  0  0  0  0
   49.1761  -27.2373  -69.0273 H   0  0  0  0  0  0  0  0  0  0  0  0
   47.6791  -28.9397  -67.8793 H   0  0  0  0  0  0  0  0  0  0  0  0
   52.3289  -30.2420  -69.5371 H   0  0  0  0  0  0  0  0  0  0  0  0
   51.4603  -27.8746  -69.8098 H   0  0  0  0  0  0  0  0  0  0  0  0
  1  2  2  0
  2  3  1  0
  3  4  1  0
  4  5  2  0
  4  6  1  0
  6  7  1  0
  2  8  1  0
  7  8  1  0
  8  9  1  0
 10 11  2  0
 11 12  1  0
 12 13  2  0
 13 16  1  0
 10 17  1  0
 16 17  2  0
  9 18  1  0
 13 18  1  0
 15 18  2  0
  9 19  1  0
 12 19  1  0
 14 19  2  0
  3 20  1  0
  6 21  1  0
  6 22  1  0
  7 23  1  0
  7 24  1  0
  8 25  1  6
 10 26  1  0
 11 27  1  0
 16 28  1  0
 17 29  1  0
M  END
$$$$
