PDB_DB00188_72
     RDKit          3D

 53 54  0  0  0  0  0  0  0  0999 V2000
    6.5560 -164.3900   33.7930 N   0  0  0  0  0  0  0  0  0  0  0  0
    7.0130 -163.2250   34.2840 C   0  0  0  0  0  0  0  0  0  0  0  0
    6.8870 -162.0520   33.5400 C   0  0  0  0  0  0  0  0  0  0  0  0
    6.2810 -162.0880   32.2790 N   0  0  0  0  0  0  0  0  0  0  0  0
    5.8080 -163.3060   31.7740 C   0  0  0  0  0  0  0  0  0  0  0  0
    5.9470 -164.4600   32.5350 C   0  0  0  0  0  0  0  0  0  0  0  0
    7.6060 -163.2260   35.5430 C   0  0  0  0  0  0  0  0  0  0  0  0
    8.2290 -164.2140   35.9300 O   0  0  0  0  0  0  0  0  0  0  0  0
    7.4360 -162.1130   36.2750 N   0  0  0  0  0  0  0  0  0  0  0  0
    7.9620 -162.0030   37.6380 C   0  0  1  0  0  0  0  0  0  0  0  0
    8.7130 -160.7050   37.8270 C   0  0  0  0  0  0  0  0  0  0  0  0
    9.8960 -160.8060   37.0710 C   0  0  0  0  0  0  0  0  0  0  0  0
   10.0670 -160.0580   35.9030 C   0  0  0  0  0  0  0  0  0  0  0  0
   11.2460 -160.1610   35.1640 C   0  0  0  0  0  0  0  0  0  0  0  0
   12.2660 -161.0100   35.5850 C   0  0  0  0  0  0  0  0  0  0  0  0
   12.1050 -161.7560   36.7490 C   0  0  0  0  0  0  0  0  0  0  0  0
   10.9280 -161.6510   37.4880 C   0  0  0  0  0  0  0  0  0  0  0  0
    6.7410 -162.0410   38.5550 C   0  0  0  0  0  0  0  0  0  0  0  0
    5.6680 -161.5890   38.1610 O   0  0  0  0  0  0  0  0  0  0  0  0
    6.9250 -162.6180   39.7530 N   0  0  0  0  0  0  0  0  0  0  0  0
    5.8240 -162.7440   40.7240 C   0  0  1  0  0  0  0  0  0  0  0  0
    5.6430 -164.1700   41.2030 C   0  0  0  0  0  0  0  0  0  0  0  0
    5.7000 -165.1450   40.0090 C   0  0  0  0  0  0  0  0  0  0  0  0
    6.0890 -166.5340   40.5360 C   0  0  0  0  0  0  0  0  0  0  0  0
    4.3500 -165.2170   39.2740 C   0  0  0  0  0  0  0  0  0  0  0  0
    6.1140 -161.8890   41.9640 B   0  0  0  0  0  0  0  0  0  0  0  0
    7.3510 -162.3120   42.5560 O   0  0  0  0  0  0  0  0  0  0  0  0
    6.2140 -160.5080   41.6080 O   0  0  0  0  0  0  0  0  0  0  0  0
    7.2632 -161.1004   33.9436 H   0  0  0  0  0  0  0  0  0  0  0  0
    5.3308 -163.3484   30.7838 H   0  0  0  0  0  0  0  0  0  0  0  0
    5.5804 -165.4233   32.1508 H   0  0  0  0  0  0  0  0  0  0  0  0
    6.9234 -161.3175   35.8684 H   0  0  0  0  0  0  0  0  0  0  0  0
    8.6703 -162.8155   37.8574 H   0  0  0  0  0  0  0  0  0  0  0  0
    8.1057 -159.8605   37.4690 H   0  0  0  0  0  0  0  0  0  0  0  0
    8.9373 -160.5298   38.8895 H   0  0  0  0  0  0  0  0  0  0  0  0
    9.2668 -159.3836   35.5640 H   0  0  0  0  0  0  0  0  0  0  0  0
   11.3701 -159.5691   34.2452 H   0  0  0  0  0  0  0  0  0  0  0  0
   13.1944 -161.0908   35.0007 H   0  0  0  0  0  0  0  0  0  0  0  0
   12.9073 -162.4289   37.0859 H   0  0  0  0  0  0  0  0  0  0  0  0
   10.8101 -162.2398   38.4097 H   0  0  0  0  0  0  0  0  0  0  0  0
    7.8570 -162.9809   39.9990 H   0  0  0  0  0  0  0  0  0  0  0  0
    4.9130 -162.4114   40.2048 H   0  0  0  0  0  0  0  0  0  0  0  0
    6.4447 -164.4189   41.9138 H   0  0  0  0  0  0  0  0  0  0  0  0
    4.6631 -164.2616   41.6944 H   0  0  0  0  0  0  0  0  0  0  0  0
    6.4468 -164.7843   39.2864 H   0  0  0  0  0  0  0  0  0  0  0  0
    6.0859 -166.5229   41.6359 H   0  0  0  0  0  0  0  0  0  0  0  0
    5.3650 -167.2792   40.1748 H   0  0  0  0  0  0  0  0  0  0  0  0
    7.0947 -166.7948   40.1748 H   0  0  0  0  0  0  0  0  0  0  0  0
    3.5337 -165.2605   40.0100 H   0  0  0  0  0  0  0  0  0  0  0  0
    4.2278 -164.3241   38.6433 H   0  0  0  0  0  0  0  0  0  0  0  0
    4.3235 -166.1178   38.6433 H   0  0  0  0  0  0  0  0  0  0  0  0
    7.2711 -162.2847   43.5424 H   0  0  0  0  0  0  0  0  0  0  0  0
    6.2539 -159.9574   42.4298 H   0  0  0  0  0  0  0  0  0  0  0  0
  1  2  2  0
  2  3  1  0
  3  4  2  0
  4  5  1  0
  1  6  1  0
  5  6  2  0
  2  7  1  0
  7  8  2  0
  7  9  1  0
  9 10  1  0
 10 11  1  0
 11 12  1  0
 12 13  2  0
 13 14  1  0
 14 15  2  0
 15 16  1  0
 12 17  1  0
 16 17  2  0
 10 18  1  0
 18 19  2  0
 18 20  1  0
 20 21  1  0
 21 22  1  0
 22 23  1  0
 23 24  1  0
 23 25  1  0
 21 26  1  0
 26 27  1  0
 26 28  1  0
  3 29  1  0
  5 30  1  0
  6 31  1  0
  9 32  1  0
 10 33  1  1
 11 34  1  0
 11 35  1  0
 13 36  1  0
 14 37  1  0
 15 38  1  0
 16 39  1  0
 17 40  1  0
 20 41  1  0
 21 42  1  6
 22 43  1  0
 22 44  1  0
 23 45  1  0
 24 46  1  0
 24 47  1  0
 24 48  1  0
 25 49  1  0
 25 50  1  0
 25 51  1  0
 27 52  1  0
 28 53  1  0
M  END
$$$$
