PDB_DB00712_92
     RDKit          3D

 31 32  0  0  0  0  0  0  0  0999 V2000
   69.1310   18.9350    7.1780 C   0  0  0  0  0  0  0  0  0  0  0  0
   68.6870   17.7490    7.7630 C   0  0  0  0  0  0  0  0  0  0  0  0
   69.1860   17.3510    9.0170 C   0  0  0  0  0  0  0  0  0  0  0  0
   70.1350   18.1620    9.6920 C   0  0  0  0  0  0  0  0  0  0  0  0
   70.5820   19.3590    9.1010 C   0  0  0  0  0  0  0  0  0  0  0  0
   70.0840   19.7450    7.8480 C   0  0  0  0  0  0  0  0  0  0  0  0
   68.7460   16.0300    9.6280 C   0  0  0  0  0  0  0  0  0  0  0  0
   67.3580   15.6110    9.6230 C   0  0  0  0  0  0  0  0  0  0  0  0
   67.0020   14.3960   10.2450 C   0  0  0  0  0  0  0  0  0  0  0  0
   68.0130   13.5900   10.8680 C   0  0  0  0  0  0  0  0  0  0  0  0
   69.3290   13.9910   10.8620 C   0  0  0  0  0  0  0  0  0  0  0  0
   69.7120   15.2000   10.2530 C   0  0  0  0  0  0  0  0  0  0  0  0
   67.6820   12.3230   11.5710 C   0  0  2  0  0  0  0  0  0  0  0  0
   66.4450   11.6730   10.9880 C   0  0  0  0  0  0  0  0  0  0  0  0
   67.4810   12.6510   13.0190 C   0  0  0  0  0  0  0  0  0  0  0  0
   66.5480   13.3380   13.3490 O   0  0  0  0  0  0  0  0  0  0  0  0
   68.3250   12.2260   13.9280 O   0  0  0  0  0  0  0  0  0  0  0  0
   71.0010   15.5800   10.2850 F   0  0  0  0  0  0  0  0  0  0  0  0
   68.7419   19.2426    6.1962 H   0  0  0  0  0  0  0  0  0  0  0  0
   67.9458   17.1241    7.2433 H   0  0  0  0  0  0  0  0  0  0  0  0
   70.5208   17.8558   10.6756 H   0  0  0  0  0  0  0  0  0  0  0  0
   71.3192   19.9892    9.6201 H   0  0  0  0  0  0  0  0  0  0  0  0
   70.4334   20.6787    7.3832 H   0  0  0  0  0  0  0  0  0  0  0  0
   66.5909   16.2338    9.1395 H   0  0  0  0  0  0  0  0  0  0  0  0
   65.9523   14.0672   10.2525 H   0  0  0  0  0  0  0  0  0  0  0  0
   70.0916   13.3582   11.3395 H   0  0  0  0  0  0  0  0  0  0  0  0
   68.5021   11.6001   11.4489 H   0  0  0  0  0  0  0  0  0  0  0  0
   65.7920   11.3298   11.8039 H   0  0  0  0  0  0  0  0  0  0  0  0
   65.9044   12.4035   10.3683 H   0  0  0  0  0  0  0  0  0  0  0  0
   66.7400   10.8134   10.3683 H   0  0  0  0  0  0  0  0  0  0  0  0
   66.4091   13.5587   14.3040 H   0  0  0  0  0  0  0  0  0  0  0  0
  1  2  2  0
  2  3  1  0
  3  4  2  0
  4  5  1  0
  1  6  1  0
  5  6  2  0
  3  7  1  0
  7  8  2  0
  8  9  1  0
  9 10  2  0
 10 11  1  0
  7 12  1  0
 11 12  2  0
 10 13  1  0
 13 14  1  0
 13 15  1  0
 15 16  1  0
 15 17  2  0
 12 18  1  0
  1 19  1  0
  2 20  1  0
  4 21  1  0
  5 22  1  0
  6 23  1  0
  8 24  1  0
  9 25  1  0
 11 26  1  0
 13 27  1  1
 14 28  1  0
 14 29  1  0
 14 30  1  0
 16 31  1  0
M  END
$$$$
