PDB_DB01095_98
     RDKit          3D

 56 58  0  0  0  0  0  0  0  0999 V2000
   34.5900   -7.3020  -13.1620 C   0  0  0  0  0  0  0  0  0  0  0  0
   34.7220   -8.6540  -12.9220 C   0  0  0  0  0  0  0  0  0  0  0  0
   35.6320   -9.4120  -13.6910 C   0  0  0  0  0  0  0  0  0  0  0  0
   36.3980   -8.7790  -14.6960 C   0  0  0  0  0  0  0  0  0  0  0  0
   36.2530   -7.4010  -14.9230 C   0  0  0  0  0  0  0  0  0  0  0  0
   35.3460   -6.6540  -14.1560 C   0  0  0  0  0  0  0  0  0  0  0  0
   33.5600   -6.7290  -12.2210 C   0  0  0  0  0  0  0  0  0  0  0  0
   33.2020   -7.8280  -11.5240 C   0  0  0  0  0  0  0  0  0  0  0  0
   33.9300   -9.0170  -11.9660 N   0  0  0  0  0  0  0  0  0  0  0  0
   32.0550   -3.3330  -13.1100 C   0  0  0  0  0  0  0  0  0  0  0  0
   32.5040   -4.6520  -13.2230 C   0  0  0  0  0  0  0  0  0  0  0  0
   33.0830   -5.2880  -12.1180 C   0  0  0  0  0  0  0  0  0  0  0  0
   33.2080   -4.5980  -10.9020 C   0  0  0  0  0  0  0  0  0  0  0  0
   32.7590   -3.2800  -10.7910 C   0  0  0  0  0  0  0  0  0  0  0  0
   32.1810   -2.6500  -11.8980 C   0  0  0  0  0  0  0  0  0  0  0  0
   31.7350   -1.3640  -11.7930 F   0  0  0  0  0  0  0  0  0  0  0  0
   32.4980   -3.2890   -4.9480 O   0  0  0  0  0  0  0  0  0  0  0  0
   34.0220   -3.8720   -6.5480 O   0  0  0  0  0  0  0  0  0  0  0  0
   30.8900   -5.3120   -7.3940 O   0  0  0  0  0  0  0  0  0  0  0  0
   33.0070   -4.1330   -5.6760 C   0  0  0  0  0  0  0  0  0  0  0  0
   32.5760   -5.5940   -5.6880 C   0  0  0  0  0  0  0  0  0  0  0  0
   32.0460   -6.0870   -7.0450 C   0  0  1  0  0  0  0  0  0  0  0  0
   31.6420   -7.5660   -6.9700 C   0  0  0  0  0  0  0  0  0  0  0  0
   31.1070   -8.1150   -8.2960 C   0  0  1  0  0  0  0  0  0  0  0  0
   32.2290   -8.2910   -9.2940 C   0  0  0  0  0  0  0  0  0  0  0  0
   32.2660   -7.7600  -10.5290 C   0  0  0  0  0  0  0  0  0  0  0  0
   33.6970  -10.4120  -11.4090 C   0  0  0  0  0  0  0  0  0  0  0  0
   33.4460  -11.4490  -12.5080 C   0  0  0  0  0  0  0  0  0  0  0  0
   34.8620  -10.8430  -10.4960 C   0  0  0  0  0  0  0  0  0  0  0  0
   30.4700   -9.3470   -8.0030 O   0  0  0  0  0  0  0  0  0  0  0  0
   35.7443  -10.4909  -13.5085 H   0  0  0  0  0  0  0  0  0  0  0  0
   37.1068   -9.3651  -15.2995 H   0  0  0  0  0  0  0  0  0  0  0  0
   36.8509   -6.9066  -15.7028 H   0  0  0  0  0  0  0  0  0  0  0  0
   35.2274   -5.5743  -14.3299 H   0  0  0  0  0  0  0  0  0  0  0  0
   31.6013   -2.8317  -13.9777 H   0  0  0  0  0  0  0  0  0  0  0  0
   32.4027   -5.1890  -14.1777 H   0  0  0  0  0  0  0  0  0  0  0  0
   33.6614   -5.0973  -10.0330 H   0  0  0  0  0  0  0  0  0  0  0  0
   32.8595   -2.7402   -9.8378 H   0  0  0  0  0  0  0  0  0  0  0  0
   31.7627   -3.5422   -4.3354 H   0  0  0  0  0  0  0  0  0  0  0  0
   30.4356   -5.0073   -6.5689 H   0  0  0  0  0  0  0  0  0  0  0  0
   33.4437   -6.2113   -5.4123 H   0  0  0  0  0  0  0  0  0  0  0  0
   31.7438   -5.6825   -4.9741 H   0  0  0  0  0  0  0  0  0  0  0  0
   32.8394   -5.9744   -7.7986 H   0  0  0  0  0  0  0  0  0  0  0  0
   32.5243   -8.1548   -6.6788 H   0  0  0  0  0  0  0  0  0  0  0  0
   30.8296   -7.6452   -6.2327 H   0  0  0  0  0  0  0  0  0  0  0  0
   30.3919   -7.4166   -8.7552 H   0  0  0  0  0  0  0  0  0  0  0  0
   33.0873   -8.9051   -8.9838 H   0  0  0  0  0  0  0  0  0  0  0  0
   31.3803   -7.1605  -10.7864 H   0  0  0  0  0  0  0  0  0  0  0  0
   32.7797  -10.3642  -10.8037 H   0  0  0  0  0  0  0  0  0  0  0  0
   33.2109  -12.4205  -12.0487 H   0  0  0  0  0  0  0  0  0  0  0  0
   32.6005  -11.1243  -13.1323 H   0  0  0  0  0  0  0  0  0  0  0  0
   34.3464  -11.5469  -13.1323 H   0  0  0  0  0  0  0  0  0  0  0  0
   34.5630  -10.7324   -9.4432 H   0  0  0  0  0  0  0  0  0  0  0  0
   35.1155  -11.8944  -10.6967 H   0  0  0  0  0  0  0  0  0  0  0  0
   35.7387  -10.2097  -10.6967 H   0  0  0  0  0  0  0  0  0  0  0  0
   30.4103   -9.4624   -7.0216 H   0  0  0  0  0  0  0  0  0  0  0  0
  1  2  1  0
  2  3  2  0
  3  4  1  0
  4  5  2  0
  1  6  2  0
  5  6  1  0
  1  7  1  0
  7  8  2  0
  2  9  1  0
  8  9  1  0
 10 11  2  0
  7 12  1  0
 11 12  1  0
 12 13  2  0
 13 14  1  0
 10 15  1  0
 14 15  2  0
 15 16  1  0
 17 20  1  0
 18 20  2  0
 20 21  1  0
 19 22  1  0
 21 22  1  0
 22 23  1  0
 23 24  1  0
 24 25  1  0
  8 26  1  0
 25 26  2  0
  9 27  1  0
 27 28  1  0
 27 29  1  0
 24 30  1  0
  3 31  1  0
  4 32  1  0
  5 33  1  0
  6 34  1  0
 10 35  1  0
 11 36  1  0
 13 37  1  0
 14 38  1  0
 17 39  1  0
 19 40  1  0
 21 41  1  0
 21 42  1  0
 22 43  1  6
 23 44  1  0
 23 45  1  0
 24 46  1  6
 25 47  1  0
 26 48  1  0
 27 49  1  0
 28 50  1  0
 28 51  1  0
 28 52  1  0
 29 53  1  0
 29 54  1  0
 29 55  1  0
 30 56  1  0
M  END
$$$$
