PDB_DB01051_96
     RDKit          3D

 80 83  0  0  0  0  0  0  0  0999 V2000
    5.7240   18.6540  -39.8400 C   0  0  0  0  0  0  0  0  0  0  0  0
    7.0900   19.0100  -39.7080 O   0  0  0  0  0  0  0  0  0  0  0  0
    7.3080   19.0250  -34.9990 N   0  0  0  0  0  0  0  0  0  0  0  0
    8.2930   18.8600  -35.8770 C   0  0  0  0  0  0  0  0  0  0  0  0
    9.4530   19.1580  -35.6840 O   0  0  0  0  0  0  0  0  0  0  0  0
    7.8290   18.2870  -37.0230 O   0  0  0  0  0  0  0  0  0  0  0  0
    7.9590   17.9150  -39.4410 C   0  0  2  0  0  0  0  0  0  0  0  0
    8.7350   18.1380  -38.1400 C   0  0  2  0  0  0  0  0  0  0  0  0
    9.7250   17.0010  -37.9090 C   0  0  1  0  0  0  0  0  0  0  0  0
    9.0680   15.7460  -37.7430 O   0  0  0  0  0  0  0  0  0  0  0  0
   10.7170   16.9270  -39.0670 C   0  0  1  0  0  0  0  0  0  0  0  0
   10.0960   16.8740  -40.3540 O   0  0  0  0  0  0  0  0  0  0  0  0
    8.9450   17.6930  -40.6940 C   0  0  0  0  0  0  0  0  0  0  0  0
    9.5070   18.9690  -41.3030 C   0  0  0  0  0  0  0  0  0  0  0  0
    8.2950   16.8330  -41.7650 C   0  0  0  0  0  0  0  0  0  0  0  0
   11.5420   18.0680  -38.9910 O   0  0  0  0  0  0  0  0  0  0  0  0
   12.7390   18.0660  -39.6670 C   0  0  0  0  0  0  0  0  0  0  0  0
   13.4890   19.2360  -39.5090 C   0  0  0  0  0  0  0  0  0  0  0  0
   12.9670   20.3810  -38.6730 C   0  0  0  0  0  0  0  0  0  0  0  0
   14.7520   19.2700  -40.1030 C   0  0  0  0  0  0  0  0  0  0  0  0
   15.2730   18.1850  -40.8200 C   0  0  0  0  0  0  0  0  0  0  0  0
   14.4780   17.0480  -40.9750 C   0  0  0  0  0  0  0  0  0  0  0  0
   13.2180   16.9850  -40.4070 C   0  0  0  0  0  0  0  0  0  0  0  0
   15.4770   20.4310  -39.9120 O   0  0  0  0  0  0  0  0  0  0  0  0
   16.7540   20.6090  -40.3980 C   0  0  0  0  0  0  0  0  0  0  0  0
   17.2630   21.6670  -40.1200 O   0  0  0  0  0  0  0  0  0  0  0  0
   17.3580   19.4370  -41.1970 C   0  0  0  0  0  0  0  0  0  0  0  0
   16.6270   18.2940  -41.3520 C   0  0  0  0  0  0  0  0  0  0  0  0
   17.1120   17.2020  -41.9430 O   0  0  0  0  0  0  0  0  0  0  0  0
   18.5940   19.7610  -41.8190 N   0  0  0  0  0  0  0  0  0  0  0  0
   19.0280   21.0100  -42.2060 C   0  0  0  0  0  0  0  0  0  0  0  0
   19.9730   21.5780  -41.6590 O   0  0  0  0  0  0  0  0  0  0  0  0
   18.2160   21.6820  -43.2700 C   0  0  0  0  0  0  0  0  0  0  0  0
   17.3310   20.9360  -44.0450 C   0  0  0  0  0  0  0  0  0  0  0  0
   16.3860   21.5480  -44.8660 C   0  0  0  0  0  0  0  0  0  0  0  0
   16.3650   22.9480  -44.9250 C   0  0  0  0  0  0  0  0  0  0  0  0
   15.4400   23.6010  -45.6760 O   0  0  0  0  0  0  0  0  0  0  0  0
   17.2790   23.6990  -44.1930 C   0  0  0  0  0  0  0  0  0  0  0  0
   18.1980   23.0700  -43.3750 C   0  0  0  0  0  0  0  0  0  0  0  0
   15.4450   20.6260  -45.6150 C   0  0  0  0  0  0  0  0  0  0  0  0
   14.0000   20.9100  -45.3110 C   0  0  0  0  0  0  0  0  0  0  0  0
   13.0790   20.0770  -44.8480 C   0  0  0  0  0  0  0  0  0  0  0  0
   13.3220   18.6300  -44.5380 C   0  0  0  0  0  0  0  0  0  0  0  0
   11.6810   20.5360  -44.5940 C   0  0  0  0  0  0  0  0  0  0  0  0
    5.2773   18.5376  -38.8416 H   0  0  0  0  0  0  0  0  0  0  0  0
    5.1909   19.4432  -40.3904 H   0  0  0  0  0  0  0  0  0  0  0  0
    5.6439   17.7050  -40.3904 H   0  0  0  0  0  0  0  0  0  0  0  0
    6.3477   18.7443  -35.2436 H   0  0  0  0  0  0  0  0  0  0  0  0
    7.5054   19.4335  -34.0743 H   0  0  0  0  0  0  0  0  0  0  0  0
    7.3612   17.0018  -39.3043 H   0  0  0  0  0  0  0  0  0  0  0  0
    9.3091   19.0722  -38.2281 H   0  0  0  0  0  0  0  0  0  0  0  0
   10.2659   17.2161  -36.9757 H   0  0  0  0  0  0  0  0  0  0  0  0
    8.9664   15.5519  -36.7776 H   0  0  0  0  0  0  0  0  0  0  0  0
   11.2862   15.9910  -38.9671 H   0  0  0  0  0  0  0  0  0  0  0  0
    9.8098   19.6564  -40.4994 H   0  0  0  0  0  0  0  0  0  0  0  0
   10.3807   18.7245  -41.9250 H   0  0  0  0  0  0  0  0  0  0  0  0
    8.7368   19.4486  -41.9250 H   0  0  0  0  0  0  0  0  0  0  0  0
    7.6974   16.0424  -41.2877 H   0  0  0  0  0  0  0  0  0  0  0  0
    7.6420   17.4586  -42.3913 H   0  0  0  0  0  0  0  0  0  0  0  0
    9.0750   16.3755  -42.3913 H   0  0  0  0  0  0  0  0  0  0  0  0
   13.0784   20.1367  -37.6063 H   0  0  0  0  0  0  0  0  0  0  0  0
   13.5385   21.2926  -38.9020 H   0  0  0  0  0  0  0  0  0  0  0  0
   11.9041   20.5474  -38.9020 H   0  0  0  0  0  0  0  0  0  0  0  0
   14.8572   16.1935  -41.5546 H   0  0  0  0  0  0  0  0  0  0  0  0
   12.5969   16.0867  -40.5384 H   0  0  0  0  0  0  0  0  0  0  0  0
   18.0253   17.2101  -42.3250 H   0  0  0  0  0  0  0  0  0  0  0  0
   19.2357   18.9760  -42.0004 H   0  0  0  0  0  0  0  0  0  0  0  0
   17.3793   19.8377  -44.0080 H   0  0  0  0  0  0  0  0  0  0  0  0
   15.4374   24.5905  -45.7080 H   0  0  0  0  0  0  0  0  0  0  0  0
   17.2701   24.7966  -44.2656 H   0  0  0  0  0  0  0  0  0  0  0  0
   18.9205   23.6703  -42.8027 H   0  0  0  0  0  0  0  0  0  0  0  0
   15.6104   20.7542  -46.6949 H   0  0  0  0  0  0  0  0  0  0  0  0
   15.6588   19.5960  -45.2934 H   0  0  0  0  0  0  0  0  0  0  0  0
   13.6644   21.9410  -45.4966 H   0  0  0  0  0  0  0  0  0  0  0  0
   13.3459   18.4876  -43.4475 H   0  0  0  0  0  0  0  0  0  0  0  0
   12.5134   18.0217  -44.9696 H   0  0  0  0  0  0  0  0  0  0  0  0
   14.2849   18.3192  -44.9696 H   0  0  0  0  0  0  0  0  0  0  0  0
   11.5053   20.5937  -43.5097 H   0  0  0  0  0  0  0  0  0  0  0  0
   11.5341   21.5296  -45.0426 H   0  0  0  0  0  0  0  0  0  0  0  0
   10.9737   19.8229  -45.0426 H   0  0  0  0  0  0  0  0  0  0  0  0
  1  2  1  0
  3  4  1  0
  4  5  2  0
  4  6  1  0
  2  7  1  0
  6  8  1  0
  7  8  1  0
  8  9  1  0
  9 10  1  0
  9 11  1  0
 11 12  1  0
  7 13  1  0
 12 13  1  0
 13 14  1  0
 13 15  1  0
 11 16  1  0
 16 17  1  0
 17 18  2  0
 18 19  1  0
 18 20  1  0
 20 21  2  0
 21 22  1  0
 17 23  1  0
 22 23  2  0
 20 24  1  0
 24 25  1  0
 25 26  2  0
 25 27  1  0
 21 28  1  0
 27 28  2  0
 28 29  1  0
 27 30  1  0
 30 31  1  0
 31 32  2  0
 31 33  1  0
 33 34  2  0
 34 35  1  0
 35 36  2  0
 36 37  1  0
 36 38  1  0
 33 39  1  0
 38 39  2  0
 35 40  1  0
 40 41  1  0
 41 42  2  3
 42 43  1  0
 42 44  1  0
  1 45  1  0
  1 46  1  0
  1 47  1  0
  3 48  1  0
  3 49  1  0
  7 50  1  1
  8 51  1  6
  9 52  1  1
 10 53  1  0
 11 54  1  1
 14 55  1  0
 14 56  1  0
 14 57  1  0
 15 58  1  0
 15 59  1  0
 15 60  1  0
 19 61  1  0
 19 62  1  0
 19 63  1  0
 22 64  1  0
 23 65  1  0
 29 66  1  0
 30 67  1  0
 34 68  1  0
 37 69  1  0
 38 70  1  0
 39 71  1  0
 40 72  1  0
 40 73  1  0
 41 74  1  0
 43 75  1  0
 43 76  1  0
 43 77  1  0
 44 78  1  0
 44 79  1  0
 44 80  1  0
M  END
$$$$
