PDB_DB00396_89
     RDKit          3D

 53 56  0  0  0  0  0  0  0  0999 V2000
   60.2300   14.1860  -12.9100 C   0  0  0  0  0  0  0  0  0  0  0  0
   60.0600   15.6700  -13.5280 C   0  0  0  0  0  0  0  0  0  0  0  0
   58.6380   16.0050  -14.0220 C   0  0  0  0  0  0  0  0  0  0  0  0
   58.5560   16.9140  -14.8360 O   0  0  0  0  0  0  0  0  0  0  0  0
   57.4280   15.1950  -13.6350 C   0  0  0  0  0  0  0  0  0  0  0  0
   57.5380   14.0920  -12.6240 C   0  0  0  0  0  0  0  0  0  0  0  0
   56.2100   13.2900  -12.1720 C   0  0  0  0  0  0  0  0  0  0  0  0
   56.4330   11.6960  -12.1130 C   0  0  0  0  0  0  0  0  0  0  0  0
   57.7480   11.2170  -11.3590 C   0  0  2  0  0  0  0  0  0  0  0  0
   59.1150   11.9740  -12.0210 C   0  0  1  0  0  0  0  0  0  0  0  0
   59.0180   13.5810  -12.0510 C   0  0  1  0  0  0  0  0  0  0  0  0
   60.5530   11.3920  -11.4520 C   0  0  0  0  0  0  0  0  0  0  0  0
   60.5700    9.8910  -11.3630 C   0  0  0  0  0  0  0  0  0  0  0  0
   59.3130    9.2230  -10.5000 C   0  0  1  0  0  0  0  0  0  0  0  0
   57.9800    9.6710  -11.3010 C   0  0  1  0  0  0  0  0  0  0  0  0
   56.8550    8.7010  -10.8580 C   0  0  0  0  0  0  0  0  0  0  0  0
   57.6330    7.3440  -10.5530 C   0  0  0  0  0  0  0  0  0  0  0  0
   59.1540    7.6230  -10.6840 C   0  0  2  0  0  0  0  0  0  0  0  0
   59.2920    9.6570   -8.9260 C   0  0  0  0  0  0  0  0  0  0  0  0
   59.0610   14.1930  -10.6540 C   0  0  0  0  0  0  0  0  0  0  0  0
   60.0870    6.6430   -9.8750 C   0  0  0  0  0  0  0  0  0  0  0  0
   59.6190    5.9240   -8.8710 O   0  0  0  0  0  0  0  0  0  0  0  0
   61.5820    6.4990  -10.3190 C   0  0  0  0  0  0  0  0  0  0  0  0
   60.4079   13.5003  -13.7515 H   0  0  0  0  0  0  0  0  0  0  0  0
   61.0545   14.2833  -12.1884 H   0  0  0  0  0  0  0  0  0  0  0  0
   60.3325   16.3982  -12.7499 H   0  0  0  0  0  0  0  0  0  0  0  0
   60.7137   15.7146  -14.4116 H   0  0  0  0  0  0  0  0  0  0  0  0
   56.4547   15.4144  -14.0981 H   0  0  0  0  0  0  0  0  0  0  0  0
   55.9109   13.6402  -11.1730 H   0  0  0  0  0  0  0  0  0  0  0  0
   55.4318   13.4878  -12.9238 H   0  0  0  0  0  0  0  0  0  0  0  0
   55.5673   11.2513  -11.6004 H   0  0  0  0  0  0  0  0  0  0  0  0
   56.5465   11.3678  -13.1568 H   0  0  0  0  0  0  0  0  0  0  0  0
   57.5881   11.5212  -10.3141 H   0  0  0  0  0  0  0  0  0  0  0  0
   59.1083   11.6784  -13.0805 H   0  0  0  0  0  0  0  0  0  0  0  0
   61.3574   11.7147  -12.1294 H   0  0  0  0  0  0  0  0  0  0  0  0
   60.6970   11.7894  -10.4365 H   0  0  0  0  0  0  0  0  0  0  0  0
   60.5337    9.4881  -12.3859 H   0  0  0  0  0  0  0  0  0  0  0  0
   61.4899    9.6256  -10.8214 H   0  0  0  0  0  0  0  0  0  0  0  0
   58.0539    9.5454  -12.3913 H   0  0  0  0  0  0  0  0  0  0  0  0
   56.3466    9.0739   -9.9566 H   0  0  0  0  0  0  0  0  0  0  0  0
   56.0678    8.5824  -11.6172 H   0  0  0  0  0  0  0  0  0  0  0  0
   57.4026    7.0028   -9.5329 H   0  0  0  0  0  0  0  0  0  0  0  0
   57.3260    6.5602  -11.2611 H   0  0  0  0  0  0  0  0  0  0  0  0
   59.5575    7.3625  -11.6736 H   0  0  0  0  0  0  0  0  0  0  0  0
   59.3356    8.7559   -8.2966 H   0  0  0  0  0  0  0  0  0  0  0  0
   60.1602   10.2971   -8.7105 H   0  0  0  0  0  0  0  0  0  0  0  0
   58.3660   10.2103   -8.7105 H   0  0  0  0  0  0  0  0  0  0  0  0
   59.0048   13.3928   -9.9013 H   0  0  0  0  0  0  0  0  0  0  0  0
   60.0005   14.7507  -10.5268 H   0  0  0  0  0  0  0  0  0  0  0  0
   58.2087   14.8766  -10.5268 H   0  0  0  0  0  0  0  0  0  0  0  0
   62.2247    6.4371   -9.4284 H   0  0  0  0  0  0  0  0  0  0  0  0
   61.6996    5.5854  -10.9202 H   0  0  0  0  0  0  0  0  0  0  0  0
   61.8718    7.3734  -10.9202 H   0  0  0  0  0  0  0  0  0  0  0  0
  1  2  1  0
  2  3  1  0
  3  4  2  0
  3  5  1  0
  5  6  2  0
  6  7  1  0
  7  8  1  0
  8  9  1  0
  9 10  1  0
  1 11  1  0
  6 11  1  0
 10 11  1  0
 10 12  1  0
 12 13  1  0
 13 14  1  0
  9 15  1  0
 14 15  1  0
 15 16  1  0
 16 17  1  0
 14 18  1  0
 17 18  1  0
 14 19  1  1
 11 20  1  1
 18 21  1  0
 21 22  2  0
 21 23  1  0
  1 24  1  0
  1 25  1  0
  2 26  1  0
  2 27  1  0
  5 28  1  0
  7 29  1  0
  7 30  1  0
  8 31  1  0
  8 32  1  0
  9 33  1  1
 10 34  1  6
 12 35  1  0
 12 36  1  0
 13 37  1  0
 13 38  1  0
 15 39  1  6
 16 40  1  0
 16 41  1  0
 17 42  1  0
 17 43  1  0
 18 44  1  6
 19 45  1  0
 19 46  1  0
 19 47  1  0
 20 48  1  0
 20 49  1  0
 20 50  1  0
 23 51  1  0
 23 52  1  0
 23 53  1  0
M  END
$$$$
