PDB_DB00302_99
     RDKit          3D

 26 26  0  0  0  0  0  0  0  0999 V2000
   21.9090   -3.5670   40.8230 C   0  0  0  0  0  0  0  0  0  0  0  0
   22.0520   -2.2980   40.0920 C   0  0  0  0  0  0  0  0  0  0  0  0
   20.7430   -1.6000   39.9020 C   0  0  0  0  0  0  0  0  0  0  0  0
   19.8410   -1.6570   41.0620 C   0  0  0  0  0  0  0  0  0  0  0  0
   19.7300   -2.9920   41.7890 C   0  0  0  0  0  0  0  0  0  0  0  0
   21.0410   -3.6860   42.0220 C   0  0  0  0  0  0  0  0  0  0  0  0
   18.3710   -1.0160   40.8590 C   0  0  0  0  0  0  0  0  0  0  0  0
   23.0010   -4.6150   40.7470 C   0  0  0  0  0  0  0  0  0  0  0  0
   18.1280   -0.5020   42.1640 N   0  0  0  0  0  0  0  0  0  0  0  0
   24.2000   -4.4640   40.9570 O   0  0  0  0  0  0  0  0  0  0  0  0
   22.5780   -5.7630   40.3660 O   0  0  0  0  0  0  0  0  0  0  0  0
   21.1987   -3.8433   40.0298 H   0  0  0  0  0  0  0  0  0  0  0  0
   22.7256   -1.6379   40.6582 H   0  0  0  0  0  0  0  0  0  0  0  0
   22.4576   -2.5282   39.0957 H   0  0  0  0  0  0  0  0  0  0  0  0
   20.9480   -0.5425   39.6793 H   0  0  0  0  0  0  0  0  0  0  0  0
   20.2283   -2.1235   39.0828 H   0  0  0  0  0  0  0  0  0  0  0  0
   20.4028   -0.9859   41.7283 H   0  0  0  0  0  0  0  0  0  0  0  0
   19.2580   -2.8126   42.7662 H   0  0  0  0  0  0  0  0  0  0  0  0
   19.1376   -3.6532   41.1395 H   0  0  0  0  0  0  0  0  0  0  0  0
   20.8559   -4.7499   42.2315 H   0  0  0  0  0  0  0  0  0  0  0  0
   21.5473   -3.2152   42.8776 H   0  0  0  0  0  0  0  0  0  0  0  0
   18.3775   -0.2171   40.1029 H   0  0  0  0  0  0  0  0  0  0  0  0
   17.6098   -1.7223   40.4961 H   0  0  0  0  0  0  0  0  0  0  0  0
   18.4499   -1.1829   42.8666 H   0  0  0  0  0  0  0  0  0  0  0  0
   18.6394    0.3838   42.2848 H   0  0  0  0  0  0  0  0  0  0  0  0
   24.8177   -5.2332   40.8743 H   0  0  0  0  0  0  0  0  0  0  0  0
  1  2  1  0
  2  3  1  0
  3  4  1  0
  4  5  1  0
  1  6  1  0
  5  6  1  0
  4  7  1  0
  1  8  1  0
  7  9  1  0
  8 10  1  0
  8 11  2  0
  1 12  1  0
  2 13  1  0
  2 14  1  0
  3 15  1  0
  3 16  1  0
  4 17  1  0
  5 18  1  0
  5 19  1  0
  6 20  1  0
  6 21  1  0
  7 22  1  0
  7 23  1  0
  9 24  1  0
  9 25  1  0
 10 26  1  0
M  END
$$$$
