PDB_DB00480_98
     RDKit          3D

 32 34  0  0  0  0  0  0  0  0999 V2000
   11.3220   39.7770  -55.7860 C   0  0  1  0  0  0  0  0  0  0  0  0
   10.6270   38.4630  -55.3020 C   0  0  0  0  0  0  0  0  0  0  0  0
   11.0770   37.9380  -53.9170 C   0  0  0  0  0  0  0  0  0  0  0  0
   12.5540   38.1420  -53.6320 C   0  0  0  0  0  0  0  0  0  0  0  0
   13.2460   39.1050  -54.2990 N   0  0  0  0  0  0  0  0  0  0  0  0
   12.7590   39.9190  -55.2800 C   0  0  0  0  0  0  0  0  0  0  0  0
   11.0700   40.5810  -59.4370 C   0  0  0  0  0  0  0  0  0  0  0  0
   11.9160   39.4660  -59.5320 C   0  0  0  0  0  0  0  0  0  0  0  0
   12.1730   38.9020  -58.1280 C   0  0  0  0  0  0  0  0  0  0  0  0
   11.3880   39.8090  -57.2650 N   0  0  0  0  0  0  0  0  0  0  0  0
   10.7640   40.7650  -57.9770 C   0  0  0  0  0  0  0  0  0  0  0  0
   11.1400   40.9050  -61.8090 C   0  0  0  0  0  0  0  0  0  0  0  0
   12.0020   39.7860  -61.9090 C   0  0  0  0  0  0  0  0  0  0  0  0
   12.4140   39.0370  -60.7890 C   0  0  0  0  0  0  0  0  0  0  0  0
   10.6720   41.3340  -60.5550 C   0  0  0  0  0  0  0  0  0  0  0  0
   10.0120   41.6300  -57.5620 O   0  0  0  0  0  0  0  0  0  0  0  0
   13.2360   37.9560  -60.9380 N   0  0  0  0  0  0  0  0  0  0  0  0
   13.4780   40.7600  -55.8150 O   0  0  0  0  0  0  0  0  0  0  0  0
   13.0810   37.4660  -52.7620 O   0  0  0  0  0  0  0  0  0  0  0  0
   10.7124   40.5980  -55.3807 H   0  0  0  0  0  0  0  0  0  0  0  0
    9.5439   38.6500  -55.2572 H   0  0  0  0  0  0  0  0  0  0  0  0
   10.9154   37.6865  -56.0258 H   0  0  0  0  0  0  0  0  0  0  0  0
   10.4990   38.4639  -53.1428 H   0  0  0  0  0  0  0  0  0  0  0  0
   10.8981   36.8527  -53.9134 H   0  0  0  0  0  0  0  0  0  0  0  0
   14.2342   39.2321  -54.0379 H   0  0  0  0  0  0  0  0  0  0  0  0
   11.8137   37.8657  -58.0449 H   0  0  0  0  0  0  0  0  0  0  0  0
   13.2397   38.8613  -57.8624 H   0  0  0  0  0  0  0  0  0  0  0  0
   10.8345   41.4422  -62.7190 H   0  0  0  0  0  0  0  0  0  0  0  0
   12.3655   39.4888  -62.9037 H   0  0  0  0  0  0  0  0  0  0  0  0
   10.0247   42.2175  -60.4534 H   0  0  0  0  0  0  0  0  0  0  0  0
   13.5691   37.6876  -61.8750 H   0  0  0  0  0  0  0  0  0  0  0  0
   13.5226   37.4094  -60.1134 H   0  0  0  0  0  0  0  0  0  0  0  0
  1  2  1  0
  2  3  1  0
  3  4  1  0
  4  5  1  0
  1  6  1  0
  5  6  1  0
  7  8  2  0
  8  9  1  0
  1 10  1  0
  9 10  1  0
  7 11  1  0
 10 11  1  0
 12 13  1  0
  8 14  1  0
 13 14  2  0
  7 15  1  0
 12 15  2  0
 11 16  2  0
 14 17  1  0
  6 18  2  0
  4 19  2  0
  1 20  1  1
  2 21  1  0
  2 22  1  0
  3 23  1  0
  3 24  1  0
  5 25  1  0
  9 26  1  0
  9 27  1  0
 12 28  1  0
 13 29  1  0
 15 30  1  0
 17 31  1  0
 17 32  1  0
M  END
$$$$
