PDB_DB00550_98
     RDKit          3D

 21 21  0  0  0  0  0  0  0  0999 V2000
  -24.3140   37.5160   55.8310 C   0  0  0  0  0  0  0  0  0  0  0  0
  -25.5090   36.5930   55.9080 C   0  0  0  0  0  0  0  0  0  0  0  0
  -25.7220   35.6840   54.6890 C   0  0  0  0  0  0  0  0  0  0  0  0
  -27.1590   35.1950   54.4960 C   0  0  0  0  0  0  0  0  0  0  0  0
  -28.1140   35.2380   55.5130 C   0  0  0  0  0  0  0  0  0  0  0  0
  -27.5690   34.6920   53.2960 N   0  0  0  0  0  0  0  0  0  0  0  0
  -28.8330   34.2360   53.0520 C   0  0  0  0  0  0  0  0  0  0  0  0
  -29.2920   33.5920   51.5030 S   0  0  0  0  0  0  0  0  0  0  0  0
  -29.7400   34.2530   54.0480 N   0  0  0  0  0  0  0  0  0  0  0  0
  -29.3990   34.7600   55.2660 C   0  0  0  0  0  0  0  0  0  0  0  0
  -30.3180   34.8000   56.2690 O   0  0  0  0  0  0  0  0  0  0  0  0
  -23.9824   37.7721   56.8481 H   0  0  0  0  0  0  0  0  0  0  0  0
  -23.4961   37.0129   55.2945 H   0  0  0  0  0  0  0  0  0  0  0  0
  -24.5941   38.4345   55.2945 H   0  0  0  0  0  0  0  0  0  0  0  0
  -25.3845   35.9505   56.7922 H   0  0  0  0  0  0  0  0  0  0  0  0
  -26.3926   37.2464   55.9554 H   0  0  0  0  0  0  0  0  0  0  0  0
  -25.4273   36.2438   53.7891 H   0  0  0  0  0  0  0  0  0  0  0  0
  -25.1102   34.7863   54.8617 H   0  0  0  0  0  0  0  0  0  0  0  0
  -27.8542   35.6458   56.5010 H   0  0  0  0  0  0  0  0  0  0  0  0
  -26.8840   34.6538   52.5277 H   0  0  0  0  0  0  0  0  0  0  0  0
  -30.6884   33.8839   53.8893 H   0  0  0  0  0  0  0  0  0  0  0  0
  1  2  1  0
  2  3  1  0
  3  4  1  0
  4  5  2  0
  4  6  1  0
  6  7  1  0
  7  8  2  0
  7  9  1  0
  5 10  1  0
  9 10  1  0
 10 11  2  0
  1 12  1  0
  1 13  1  0
  1 14  1  0
  2 15  1  0
  2 16  1  0
  3 17  1  0
  3 18  1  0
  5 19  1  0
  6 20  1  0
  9 21  1  0
M  END
$$$$
