PDB_DB00783_97
     RDKit          3D

 44 47  0  0  0  0  0  0  0  0999 V2000
   13.1930    6.3290   36.3840 C   0  0  0  0  0  0  0  0  0  0  0  0
   11.8600    6.1970   36.7130 C   0  0  0  0  0  0  0  0  0  0  0  0
   10.8670    6.3850   35.7770 C   0  0  0  0  0  0  0  0  0  0  0  0
    9.5720    6.2390   36.0740 O   0  0  0  0  0  0  0  0  0  0  0  0
   11.2720    6.7000   34.5190 C   0  0  0  0  0  0  0  0  0  0  0  0
   12.5640    6.8500   34.1280 C   0  0  0  0  0  0  0  0  0  0  0  0
   12.9410    7.2000   32.7090 C   0  0  0  0  0  0  0  0  0  0  0  0
   14.3420    7.6890   32.5580 C   0  0  0  0  0  0  0  0  0  0  0  0
   15.2910    6.7540   33.2090 C   0  0  2  0  0  0  0  0  0  0  0  0
   15.0350    6.8360   34.7070 C   0  0  1  0  0  0  0  0  0  0  0  0
   13.6180    6.6490   35.1100 C   0  0  0  0  0  0  0  0  0  0  0  0
   15.9640    5.8840   35.4340 C   0  0  0  0  0  0  0  0  0  0  0  0
   17.4230    6.1330   35.0680 C   0  0  0  0  0  0  0  0  0  0  0  0
   17.6730    6.1420   33.5850 C   0  0  1  0  0  0  0  0  0  0  0  0
   16.7430    7.1440   32.9740 C   0  0  1  0  0  0  0  0  0  0  0  0
   17.2750    7.3540   31.5540 C   0  0  0  0  0  0  0  0  0  0  0  0
   18.7590    7.1060   31.6800 C   0  0  0  0  0  0  0  0  0  0  0  0
   18.9940    6.7010   33.1260 C   0  0  2  0  0  0  0  0  0  0  0  0
   20.0760    5.8230   33.2190 O   0  0  0  0  0  0  0  0  0  0  0  0
   17.4540    4.7430   33.0350 C   0  0  0  0  0  0  0  0  0  0  0  0
   13.9481    6.1730   37.1685 H   0  0  0  0  0  0  0  0  0  0  0  0
   11.5839    5.9359   37.7453 H   0  0  0  0  0  0  0  0  0  0  0  0
    8.8848    6.3821   35.3758 H   0  0  0  0  0  0  0  0  0  0  0  0
   10.4920    6.8450   33.7570 H   0  0  0  0  0  0  0  0  0  0  0  0
   12.8191    6.3012   32.0867 H   0  0  0  0  0  0  0  0  0  0  0  0
   12.2808    8.0228   32.3973 H   0  0  0  0  0  0  0  0  0  0  0  0
   14.5855    7.7653   31.4880 H   0  0  0  0  0  0  0  0  0  0  0  0
   14.4284    8.6751   33.0377 H   0  0  0  0  0  0  0  0  0  0  0  0
   15.1350    5.7484   32.7913 H   0  0  0  0  0  0  0  0  0  0  0  0
   15.2569    7.8711   35.0059 H   0  0  0  0  0  0  0  0  0  0  0  0
   15.8395    6.0223   36.5181 H   0  0  0  0  0  0  0  0  0  0  0  0
   15.7055    4.8571   35.1362 H   0  0  0  0  0  0  0  0  0  0  0  0
   17.7240    7.1082   35.4784 H   0  0  0  0  0  0  0  0  0  0  0  0
   18.0102    5.3049   35.4915 H   0  0  0  0  0  0  0  0  0  0  0  0
   16.7248    8.1420   33.4363 H   0  0  0  0  0  0  0  0  0  0  0  0
   16.8169    6.6388   30.8550 H   0  0  0  0  0  0  0  0  0  0  0  0
   17.0448    8.3545   31.1591 H   0  0  0  0  0  0  0  0  0  0  0  0
   19.0707    6.2984   31.0013 H   0  0  0  0  0  0  0  0  0  0  0  0
   19.3414    7.9998   31.4119 H   0  0  0  0  0  0  0  0  0  0  0  0
   19.2855    7.5330   33.7839 H   0  0  0  0  0  0  0  0  0  0  0  0
   20.2834    5.6547   34.1723 H   0  0  0  0  0  0  0  0  0  0  0  0
   17.3431    4.0344   33.8690 H   0  0  0  0  0  0  0  0  0  0  0  0
   16.5428    4.7297   32.4189 H   0  0  0  0  0  0  0  0  0  0  0  0
   18.3175    4.4519   32.4189 H   0  0  0  0  0  0  0  0  0  0  0  0
  1  2  2  0
  2  3  1  0
  3  4  1  0
  3  5  2  0
  5  6  1  0
  6  7  1  0
  7  8  1  0
  8  9  1  0
  9 10  1  0
  1 11  1  0
  6 11  2  0
 10 11  1  0
 10 12  1  0
 12 13  1  0
 13 14  1  0
  9 15  1  0
 14 15  1  0
 15 16  1  0
 16 17  1  0
 14 18  1  0
 17 18  1  0
 18 19  1  0
 14 20  1  6
  1 21  1  0
  2 22  1  0
  4 23  1  0
  5 24  1  0
  7 25  1  0
  7 26  1  0
  8 27  1  0
  8 28  1  0
  9 29  1  6
 10 30  1  1
 12 31  1  0
 12 32  1  0
 13 33  1  0
 13 34  1  0
 15 35  1  1
 16 36  1  0
 16 37  1  0
 17 38  1  0
 17 39  1  0
 18 40  1  1
 19 41  1  0
 20 42  1  0
 20 43  1  0
 20 44  1  0
M  END
$$$$
