PDB_DB00783_93
     RDKit          3D

 44 47  0  0  0  0  0  0  0  0999 V2000
  -27.5990   26.1130  -14.2190 C   0  0  0  0  0  0  0  0  0  0  0  0
  -27.7290   24.7390  -14.4260 C   0  0  0  0  0  0  0  0  0  0  0  0
  -26.6320   23.8590  -14.2030 C   0  0  0  0  0  0  0  0  0  0  0  0
  -26.6970   22.4600  -14.4360 O   0  0  0  0  0  0  0  0  0  0  0  0
  -25.4200   24.4160  -13.7600 C   0  0  0  0  0  0  0  0  0  0  0  0
  -25.2930   25.7750  -13.4950 C   0  0  0  0  0  0  0  0  0  0  0  0
  -23.9380   26.3470  -12.9920 C   0  0  0  0  0  0  0  0  0  0  0  0
  -23.7390   27.8160  -13.2720 C   0  0  0  0  0  0  0  0  0  0  0  0
  -25.0150   28.5430  -12.6760 C   0  0  2  0  0  0  0  0  0  0  0  0
  -26.2790   28.2010  -13.4970 C   0  0  1  0  0  0  0  0  0  0  0  0
  -26.4410   26.6800  -13.7220 C   0  0  0  0  0  0  0  0  0  0  0  0
  -27.5780   28.8860  -12.9810 C   0  0  0  0  0  0  0  0  0  0  0  0
  -27.4370   30.4120  -12.7620 C   0  0  0  0  0  0  0  0  0  0  0  0
  -26.1790   30.7470  -11.9590 C   0  0  1  0  0  0  0  0  0  0  0  0
  -24.9420   30.0850  -12.6360 C   0  0  1  0  0  0  0  0  0  0  0  0
  -23.6950   30.7230  -11.9340 C   0  0  0  0  0  0  0  0  0  0  0  0
  -24.1870   32.1540  -11.5940 C   0  0  0  0  0  0  0  0  0  0  0  0
  -25.6840   32.1870  -12.0450 C   0  0  2  0  0  0  0  0  0  0  0  0
  -26.4710   33.0900  -11.2230 O   0  0  0  0  0  0  0  0  0  0  0  0
  -26.3650   30.3190  -10.4610 C   0  0  0  0  0  0  0  0  0  0  0  0
  -28.4490   26.7683  -14.4602 H   0  0  0  0  0  0  0  0  0  0  0  0
  -28.6920   24.3303  -14.7660 H   0  0  0  0  0  0  0  0  0  0  0  0
  -25.9043   21.8923  -14.2645 H   0  0  0  0  0  0  0  0  0  0  0  0
  -24.5488   23.7594  -13.6192 H   0  0  0  0  0  0  0  0  0  0  0  0
  -23.8824   26.1935  -11.9042 H   0  0  0  0  0  0  0  0  0  0  0  0
  -23.1486   25.8131  -13.5414 H   0  0  0  0  0  0  0  0  0  0  0  0
  -22.8252   28.1800  -12.7795 H   0  0  0  0  0  0  0  0  0  0  0  0
  -23.6256   28.0124  -14.3484 H   0  0  0  0  0  0  0  0  0  0  0  0
  -25.0555   28.1693  -11.6422 H   0  0  0  0  0  0  0  0  0  0  0  0
  -26.1111   28.6468  -14.4885 H   0  0  0  0  0  0  0  0  0  0  0  0
  -28.3765   28.7140  -13.7177 H   0  0  0  0  0  0  0  0  0  0  0  0
  -27.8057   28.4421  -12.0006 H   0  0  0  0  0  0  0  0  0  0  0  0
  -27.3798   30.9102  -13.7410 H   0  0  0  0  0  0  0  0  0  0  0  0
  -28.3125   30.7627  -12.1959 H   0  0  0  0  0  0  0  0  0  0  0  0
  -24.8848   30.2944  -13.7144 H   0  0  0  0  0  0  0  0  0  0  0  0
  -23.4270   30.1691  -11.0222 H   0  0  0  0  0  0  0  0  0  0  0  0
  -22.7897   30.7106  -12.5588 H   0  0  0  0  0  0  0  0  0  0  0  0
  -24.1047   32.3443  -10.5137 H   0  0  0  0  0  0  0  0  0  0  0  0
  -23.5874   32.9268  -12.0973 H   0  0  0  0  0  0  0  0  0  0  0  0
  -25.7864   32.5738  -13.0697 H   0  0  0  0  0  0  0  0  0  0  0  0
  -26.3028   32.8970  -10.2667 H   0  0  0  0  0  0  0  0  0  0  0  0
  -26.0138   31.1271   -9.8025 H   0  0  0  0  0  0  0  0  0  0  0  0
  -27.4295   30.1229  -10.2652 H   0  0  0  0  0  0  0  0  0  0  0  0
  -25.7821   29.4070  -10.2652 H   0  0  0  0  0  0  0  0  0  0  0  0
  1  2  2  0
  2  3  1  0
  3  4  1  0
  3  5  2  0
  5  6  1  0
  6  7  1  0
  7  8  1  0
  8  9  1  0
  9 10  1  0
  1 11  1  0
  6 11  2  0
 10 11  1  0
 10 12  1  0
 12 13  1  0
 13 14  1  0
  9 15  1  0
 14 15  1  0
 15 16  1  0
 16 17  1  0
 14 18  1  0
 17 18  1  0
 18 19  1  0
 14 20  1  1
  1 21  1  0
  2 22  1  0
  4 23  1  0
  5 24  1  0
  7 25  1  0
  7 26  1  0
  8 27  1  0
  8 28  1  0
  9 29  1  1
 10 30  1  6
 12 31  1  0
 12 32  1  0
 13 33  1  0
 13 34  1  0
 15 35  1  6
 16 36  1  0
 16 37  1  0
 17 38  1  0
 17 39  1  0
 18 40  1  6
 19 41  1  0
 20 42  1  0
 20 43  1  0
 20 44  1  0
M  END
$$$$
