PDB_DB00703_93
     RDKit          3D

 22 22  0  0  0  0  0  0  0  0999 V2000
    5.1430  -16.8680   18.8390 N   0  0  0  0  0  0  0  0  0  0  0  0
    3.7560  -16.9370   18.0060 S   0  0  0  0  0  0  0  0  0  0  0  0
    3.8250  -16.1080   16.8390 O   0  0  0  0  0  0  0  0  0  0  0  0
    2.6720  -16.4670   18.8180 O   0  0  0  0  0  0  0  0  0  0  0  0
    3.4260  -18.5190   17.5830 C   0  0  0  0  0  0  0  0  0  0  0  0
    1.9600  -19.3340   18.1310 S   0  0  0  0  0  0  0  0  0  0  0  0
    2.5610  -20.6890   17.2160 C   0  0  0  0  0  0  0  0  0  0  0  0
    3.7270  -20.5050   16.6010 N   0  0  0  0  0  0  0  0  0  0  0  0
    4.5310  -21.4030   15.7520 C   0  0  0  0  0  0  0  0  0  0  0  0
    4.2740  -19.2190   16.7880 N   0  0  0  0  0  0  0  0  0  0  0  0
    1.9050  -21.8810   17.1420 N   0  0  0  0  0  0  0  0  0  0  0  0
    0.5910  -21.9710   16.8770 C   0  0  0  0  0  0  0  0  0  0  0  0
   -0.2650  -21.6940   17.7030 O   0  0  0  0  0  0  0  0  0  0  0  0
    0.2110  -22.4490   15.5070 C   0  0  0  0  0  0  0  0  0  0  0  0
    4.9382  -16.8782   19.8484 H   0  0  0  0  0  0  0  0  0  0  0  0
    5.7283  -17.6809   18.5992 H   0  0  0  0  0  0  0  0  0  0  0  0
    5.1293  -22.0713   16.3887 H   0  0  0  0  0  0  0  0  0  0  0  0
    3.8626  -22.0030   15.1169 H   0  0  0  0  0  0  0  0  0  0  0  0
    5.2009  -20.8048   15.1169 H   0  0  0  0  0  0  0  0  0  0  0  0
   -0.4714  -23.3073   15.5943 H   0  0  0  0  0  0  0  0  0  0  0  0
   -0.2902  -21.6362   14.9610 H   0  0  0  0  0  0  0  0  0  0  0  0
    1.1159  -22.7540   14.9610 H   0  0  0  0  0  0  0  0  0  0  0  0
  1  2  1  0
  2  3  2  0
  2  4  2  0
  2  5  1  0
  5  6  1  0
  6  7  1  0
  7  8  1  0
  8  9  1  0
  5 10  2  0
  8 10  1  0
  7 11  2  0
 11 12  1  0
 12 13  2  0
 12 14  1  0
  1 15  1  0
  1 16  1  0
  9 17  1  0
  9 18  1  0
  9 19  1  0
 14 20  1  0
 14 21  1  0
 14 22  1  0
M  END
$$$$
