PDB_DB00558_84
     RDKit          3D

 43 43  0  0  0  0  0  0  0  0999 V2000
  -16.2040    6.5010   75.1890 C   0  0  0  0  0  0  0  0  0  0  0  0
  -16.9360    5.5730   75.6380 O   0  0  0  0  0  0  0  0  0  0  0  0
  -14.9770    6.5450   75.5310 O   0  0  0  0  0  0  0  0  0  0  0  0
  -16.7720    7.4330   74.3590 C   0  0  0  0  0  0  0  0  0  0  0  0
  -15.7900    7.9940   73.2840 C   0  0  0  0  0  0  0  0  0  0  0  0
  -16.3960    8.5790   72.0730 C   0  0  1  0  0  0  0  0  0  0  0  0
  -17.8160    8.5560   72.0340 C   0  0  1  0  0  0  0  0  0  0  0  0
  -18.2130    8.8810   70.5600 N   0  0  0  0  0  0  0  0  0  0  0  0
  -18.7390   10.1400   70.1240 C   0  0  0  0  0  0  0  0  0  0  0  0
  -18.9410   11.0600   70.8940 O   0  0  0  0  0  0  0  0  0  0  0  0
  -19.0490   10.3040   68.6710 C   0  0  0  0  0  0  0  0  0  0  0  0
  -18.3980    7.2860   72.4230 C   0  0  1  0  0  0  0  0  0  0  0  0
  -17.9140    6.7420   73.6710 O   0  0  0  0  0  0  0  0  0  0  0  0
  -19.9310    7.2490   72.4680 C   0  0  2  0  0  0  0  0  0  0  0  0
  -20.4130    8.0800   73.4400 O   0  0  0  0  0  0  0  0  0  0  0  0
  -20.3940    5.8390   72.8120 C   0  0  2  0  0  0  0  0  0  0  0  0
  -19.8990    4.9430   71.8840 O   0  0  0  0  0  0  0  0  0  0  0  0
  -21.9000    5.7140   72.8710 C   0  0  0  0  0  0  0  0  0  0  0  0
  -22.5550    5.9180   71.6600 O   0  0  0  0  0  0  0  0  0  0  0  0
  -15.8710   10.0310   71.8550 N   0  0  0  0  0  0  0  0  0  0  0  0
  -15.5510   10.4930   70.5270 C   0  0  0  0  0  0  0  0  0  0  0  0
  -15.4180    9.6080   69.5450 N   0  0  0  0  0  0  0  0  0  0  0  0
  -15.0340   11.6770   70.4070 N   0  0  0  0  0  0  0  0  0  0  0  0
  -17.8908    5.5271   75.3804 H   0  0  0  0  0  0  0  0  0  0  0  0
  -14.6994    7.9552   73.4224 H   0  0  0  0  0  0  0  0  0  0  0  0
  -16.0780    7.9247   71.2479 H   0  0  0  0  0  0  0  0  0  0  0  0
  -18.2013    9.2860   72.7611 H   0  0  0  0  0  0  0  0  0  0  0  0
  -18.0886    8.1413   69.8541 H   0  0  0  0  0  0  0  0  0  0  0  0
  -20.0162   10.8157   68.5579 H   0  0  0  0  0  0  0  0  0  0  0  0
  -18.2595   10.9024   68.1929 H   0  0  0  0  0  0  0  0  0  0  0  0
  -19.0995    9.3146   68.1929 H   0  0  0  0  0  0  0  0  0  0  0  0
  -18.0486    6.6546   71.5928 H   0  0  0  0  0  0  0  0  0  0  0  0
  -20.3029    7.5674   71.4829 H   0  0  0  0  0  0  0  0  0  0  0  0
  -20.1963    7.7064   74.3308 H   0  0  0  0  0  0  0  0  0  0  0  0
  -20.0041    5.6118   73.8152 H   0  0  0  0  0  0  0  0  0  0  0  0
  -19.4776    4.1803   72.3539 H   0  0  0  0  0  0  0  0  0  0  0  0
  -22.1448    4.7017   73.2251 H   0  0  0  0  0  0  0  0  0  0  0  0
  -22.2483    6.5091   73.5467 H   0  0  0  0  0  0  0  0  0  0  0  0
  -23.4857    6.2079   71.8329 H   0  0  0  0  0  0  0  0  0  0  0  0
  -15.1896    9.9262   68.5924 H   0  0  0  0  0  0  0  0  0  0  0  0
  -15.5433    8.6037   69.7363 H   0  0  0  0  0  0  0  0  0  0  0  0
  -14.7922   12.0413   69.4744 H   0  0  0  0  0  0  0  0  0  0  0  0
  -14.8653   12.2526   71.2443 H   0  0  0  0  0  0  0  0  0  0  0  0
  1  2  1  0
  1  3  2  0
  1  4  1  0
  4  5  2  0
  5  6  1  0
  6  7  1  0
  7  8  1  0
  8  9  1  0
  9 10  2  0
  9 11  1  0
  7 12  1  0
  4 13  1  0
 12 13  1  0
 12 14  1  0
 14 15  1  0
 14 16  1  0
 16 17  1  0
 16 18  1  0
 18 19  1  0
  6 20  1  0
 20 21  2  3
 21 22  1  0
 21 23  1  0
  2 24  1  0
  5 25  1  0
  6 26  1  6
  7 27  1  1
  8 28  1  0
 11 29  1  0
 11 30  1  0
 11 31  1  0
 12 32  1  6
 14 33  1  6
 15 34  1  0
 16 35  1  1
 17 36  1  0
 18 37  1  0
 18 38  1  0
 19 39  1  0
 22 40  1  0
 22 41  1  0
 23 42  1  0
 23 43  1  0
M  END
$$$$
