PDB_DB08954_96
     RDKit          3D

 51 53  0  0  0  0  0  0  0  0999 V2000
   30.3570   -7.9820  -31.1430 C   0  0  0  0  0  0  0  0  0  0  0  0
   23.1640   -5.2470  -32.2220 N   0  0  0  0  0  0  0  0  0  0  0  0
   22.3960   -2.4060  -32.5240 O   0  0  0  0  0  0  0  0  0  0  0  0
   18.0370   -3.4930  -34.0090 C   0  0  0  0  0  0  0  0  0  0  0  0
   16.0150   -2.1790  -33.4260 O   0  0  0  0  0  0  0  0  0  0  0  0
   18.0280   -1.8370  -32.3280 C   0  0  0  0  0  0  0  0  0  0  0  0
   28.0160   -7.5150  -32.6120 C   0  0  0  0  0  0  0  0  0  0  0  0
   28.8600   -6.4390  -32.3100 C   0  0  0  0  0  0  0  0  0  0  0  0
   30.0360   -6.6560  -31.5700 C   0  0  0  0  0  0  0  0  0  0  0  0
   26.7760   -7.2750  -33.4260 C   0  0  0  0  0  0  0  0  0  0  0  0
   25.4120   -7.0200  -32.6350 C   0  0  0  0  0  0  0  0  0  0  0  0
   25.5090   -5.9670  -31.6530 C   0  0  0  0  0  0  0  0  0  0  0  0
   29.5300   -9.0660  -31.4480 C   0  0  0  0  0  0  0  0  0  0  0  0
   28.3570   -8.8390  -32.1870 C   0  0  0  0  0  0  0  0  0  0  0  0
   24.1710   -5.4510  -31.1670 C   0  0  0  0  0  0  0  0  0  0  0  0
   23.1230   -6.3860  -33.0910 C   0  0  0  0  0  0  0  0  0  0  0  0
   24.4500   -6.6560  -33.6840 C   0  0  0  0  0  0  0  0  0  0  0  0
   21.8980   -4.5940  -31.7670 C   0  0  2  0  0  0  0  0  0  0  0  0
   21.5520   -3.2880  -32.4210 C   0  0  1  0  0  0  0  0  0  0  0  0
   20.0800   -3.0740  -32.8150 C   0  0  0  0  0  0  0  0  0  0  0  0
   19.4210   -3.7700  -33.7650 C   0  0  0  0  0  0  0  0  0  0  0  0
   17.3770   -2.5070  -33.2560 C   0  0  0  0  0  0  0  0  0  0  0  0
   19.4010   -2.1220  -32.0880 C   0  0  0  0  0  0  0  0  0  0  0  0
   21.8010   -4.2990  -30.3260 C   0  0  0  0  0  0  0  0  0  0  0  0
   31.2751   -8.1526  -30.5616 H   0  0  0  0  0  0  0  0  0  0  0  0
   22.6776   -2.1117  -31.6217 H   0  0  0  0  0  0  0  0  0  0  0  0
   17.4918   -4.0511  -34.7844 H   0  0  0  0  0  0  0  0  0  0  0  0
   15.6019   -1.4745  -32.8664 H   0  0  0  0  0  0  0  0  0  0  0  0
   17.5133   -1.0615  -31.7418 H   0  0  0  0  0  0  0  0  0  0  0  0
   28.6033   -5.4253  -32.6512 H   0  0  0  0  0  0  0  0  0  0  0  0
   30.7010   -5.8154  -31.3227 H   0  0  0  0  0  0  0  0  0  0  0  0
   26.9613   -6.3926  -34.0561 H   0  0  0  0  0  0  0  0  0  0  0  0
   26.6120   -8.2165  -33.9707 H   0  0  0  0  0  0  0  0  0  0  0  0
   25.1218   -7.9110  -32.0589 H   0  0  0  0  0  0  0  0  0  0  0  0
   26.0661   -6.3527  -30.7865 H   0  0  0  0  0  0  0  0  0  0  0  0
   26.0165   -5.1224  -32.1420 H   0  0  0  0  0  0  0  0  0  0  0  0
   29.7931  -10.0808  -31.1149 H   0  0  0  0  0  0  0  0  0  0  0  0
   27.6976   -9.6822  -32.4402 H   0  0  0  0  0  0  0  0  0  0  0  0
   24.3388   -4.4872  -30.6641 H   0  0  0  0  0  0  0  0  0  0  0  0
   23.7657   -6.2260  -30.4998 H   0  0  0  0  0  0  0  0  0  0  0  0
   22.8025   -7.2659  -32.5139 H   0  0  0  0  0  0  0  0  0  0  0  0
   22.4143   -6.1763  -33.9057 H   0  0  0  0  0  0  0  0  0  0  0  0
   24.8049   -5.7546  -34.2051 H   0  0  0  0  0  0  0  0  0  0  0  0
   24.3616   -7.4913  -34.3943 H   0  0  0  0  0  0  0  0  0  0  0  0
   21.2039   -5.3930  -32.0667 H   0  0  0  0  0  0  0  0  0  0  0  0
   21.8584   -3.6950  -33.3959 H   0  0  0  0  0  0  0  0  0  0  0  0
   19.9425   -4.5439  -34.3473 H   0  0  0  0  0  0  0  0  0  0  0  0
   19.9338   -1.5676  -31.3014 H   0  0  0  0  0  0  0  0  0  0  0  0
   22.0935   -5.1887  -29.7491 H   0  0  0  0  0  0  0  0  0  0  0  0
   22.4717   -3.4635  -30.0768 H   0  0  0  0  0  0  0  0  0  0  0  0
   20.7653   -4.0246  -30.0768 H   0  0  0  0  0  0  0  0  0  0  0  0
  7  8  2  0
  1  9  2  0
  8  9  1  0
  7 10  1  0
 10 11  1  0
 11 12  1  0
  1 13  1  0
  7 14  1  0
 13 14  2  0
  2 15  1  0
 12 15  1  0
  2 16  1  0
 11 17  1  0
 16 17  1  0
  2 18  1  0
  3 19  1  0
 18 19  1  0
 19 20  1  0
  4 21  2  0
 20 21  1  0
  4 22  1  0
  5 22  1  0
  6 22  2  0
  6 23  1  0
 20 23  2  0
 18 24  1  0
  1 25  1  0
  3 26  1  0
  4 27  1  0
  5 28  1  0
  6 29  1  0
  8 30  1  0
  9 31  1  0
 10 32  1  0
 10 33  1  0
 11 34  1  0
 12 35  1  0
 12 36  1  0
 13 37  1  0
 14 38  1  0
 15 39  1  0
 15 40  1  0
 16 41  1  0
 16 42  1  0
 17 43  1  0
 17 44  1  0
 18 45  1  6
 19 46  1  6
 21 47  1  0
 23 48  1  0
 24 49  1  0
 24 50  1  0
 24 51  1  0
M  END
$$$$
