PDB_DB09462_95
     RDKit          3D

 14 13  0  0  0  0  0  0  0  0999 V2000
   30.2300  -28.0570   37.6520 C   0  0  0  0  0  0  0  0  0  0  0  0
   28.9840  -28.5350   38.1230 O   0  0  0  0  0  0  0  0  0  0  0  0
   31.4440  -28.8100   38.1930 C   0  0  0  0  0  0  0  0  0  0  0  0
   32.4810  -27.8870   38.1710 O   0  0  0  0  0  0  0  0  0  0  0  0
   31.8300  -30.0010   37.3260 C   0  0  0  0  0  0  0  0  0  0  0  0
   32.8480  -30.7820   37.9130 O   0  0  0  0  0  0  0  0  0  0  0  0
   30.2365  -28.1381   36.5550 H   0  0  0  0  0  0  0  0  0  0  0  0
   30.3215  -27.0201   38.0077 H   0  0  0  0  0  0  0  0  0  0  0  0
   28.9835  -28.5352   39.1130 H   0  0  0  0  0  0  0  0  0  0  0  0
   31.2249  -29.2103   39.1939 H   0  0  0  0  0  0  0  0  0  0  0  0
   32.7385  -27.6578   39.0990 H   0  0  0  0  0  0  0  0  0  0  0  0
   30.9417  -30.6322   37.1760 H   0  0  0  0  0  0  0  0  0  0  0  0
   32.2121  -29.6124   36.3705 H   0  0  0  0  0  0  0  0  0  0  0  0
   32.7780  -30.7283   38.8991 H   0  0  0  0  0  0  0  0  0  0  0  0
  1  2  1  0
  1  3  1  0
  3  4  1  0
  3  5  1  0
  5  6  1  0
  1  7  1  0
  1  8  1  0
  2  9  1  0
  3 10  1  0
  4 11  1  0
  5 12  1  0
  5 13  1  0
  6 14  1  0
M  END
$$$$
