PDB_DB00674_98
     RDKit          3D

 42 45  0  0  0  0  0  0  0  0999 V2000
    8.9620  -62.0110  -25.7940 C   0  0  0  0  0  0  0  0  0  0  0  0
    8.0120  -62.9390  -25.9730 C   0  0  0  0  0  0  0  0  0  0  0  0
    7.3170  -63.6560  -24.8280 C   0  0  1  0  0  0  0  0  0  0  0  0
    8.2200  -63.6640  -23.6010 C   0  0  0  0  0  0  0  0  0  0  0  0
    8.7050  -62.2540  -23.2810 C   0  0  1  0  0  0  0  0  0  0  0  0
    9.4370  -61.5180  -24.4380 C   0  0  1  0  0  0  0  0  0  0  0  0
    7.5900  -61.4310  -22.8880 O   0  0  0  0  0  0  0  0  0  0  0  0
    7.0800  -58.9210  -22.9980 C   0  0  0  0  0  0  0  0  0  0  0  0
    7.5120  -57.7420  -23.6030 C   0  0  0  0  0  0  0  0  0  0  0  0
    8.5890  -57.7110  -24.5080 C   0  0  0  0  0  0  0  0  0  0  0  0
   10.4580  -58.7700  -25.8500 C   0  0  0  0  0  0  0  0  0  0  0  0
   11.6750  -59.3480  -25.2530 N   0  0  0  0  0  0  0  0  0  0  0  0
   11.6890  -60.8130  -25.4240 C   0  0  0  0  0  0  0  0  0  0  0  0
   10.9670  -61.5560  -24.3040 C   0  0  0  0  0  0  0  0  0  0  0  0
    7.7900  -60.1650  -23.3380 C   0  0  0  0  0  0  0  0  0  0  0  0
    8.9020  -60.1360  -24.2650 C   0  0  0  0  0  0  0  0  0  0  0  0
    9.3040  -58.8530  -24.8800 C   0  0  0  0  0  0  0  0  0  0  0  0
    5.2000  -57.8170  -21.9560 C   0  0  0  0  0  0  0  0  0  0  0  0
    6.0340  -58.9540  -22.1190 O   0  0  0  0  0  0  0  0  0  0  0  0
    6.0600  -63.0460  -24.4980 O   0  0  0  0  0  0  0  0  0  0  0  0
   12.8270  -58.7700  -25.9640 C   0  0  0  0  0  0  0  0  0  0  0  0
    9.4296  -61.5767  -26.6899 H   0  0  0  0  0  0  0  0  0  0  0  0
    7.7203  -63.1949  -27.0023 H   0  0  0  0  0  0  0  0  0  0  0  0
    7.1151  -64.6871  -25.1537 H   0  0  0  0  0  0  0  0  0  0  0  0
    7.6576  -64.0565  -22.7410 H   0  0  0  0  0  0  0  0  0  0  0  0
    9.0930  -64.3004  -23.8079 H   0  0  0  0  0  0  0  0  0  0  0  0
    9.4399  -62.3963  -22.4749 H   0  0  0  0  0  0  0  0  0  0  0  0
    6.9925  -56.8022  -23.3645 H   0  0  0  0  0  0  0  0  0  0  0  0
    8.8817  -56.7438  -24.9426 H   0  0  0  0  0  0  0  0  0  0  0  0
   10.6440  -57.7156  -26.1024 H   0  0  0  0  0  0  0  0  0  0  0  0
   10.2023  -59.3370  -26.7573 H   0  0  0  0  0  0  0  0  0  0  0  0
   11.1998  -61.0582  -26.3782 H   0  0  0  0  0  0  0  0  0  0  0  0
   12.7409  -61.1343  -25.4042 H   0  0  0  0  0  0  0  0  0  0  0  0
   11.2450  -61.0963  -23.3441 H   0  0  0  0  0  0  0  0  0  0  0  0
   11.2733  -62.6109  -24.3622 H   0  0  0  0  0  0  0  0  0  0  0  0
    5.0550  -57.6193  -20.8837 H   0  0  0  0  0  0  0  0  0  0  0  0
    5.6736  -56.9441  -22.4290 H   0  0  0  0  0  0  0  0  0  0  0  0
    4.2251  -58.0065  -22.4290 H   0  0  0  0  0  0  0  0  0  0  0  0
    5.9641  -62.9995  -23.5138 H   0  0  0  0  0  0  0  0  0  0  0  0
   13.5617  -58.4014  -25.2330 H   0  0  0  0  0  0  0  0  0  0  0  0
   13.2929  -59.5411  -26.5952 H   0  0  0  0  0  0  0  0  0  0  0  0
   12.4873  -57.9356  -26.5952 H   0  0  0  0  0  0  0  0  0  0  0  0
  1  2  2  0
  2  3  1  0
  3  4  1  0
  4  5  1  0
  6  1  1  6
  5  6  1  0
  5  7  1  0
  8  9  2  0
  9 10  1  0
 11 12  1  0
 12 13  1  0
  6 14  1  0
 13 14  1  0
  7 15  1  0
  8 15  1  0
  6 16  1  0
 15 16  2  0
 10 17  2  0
 11 17  1  0
 16 17  1  0
  8 19  1  0
 18 19  1  0
  3 20  1  0
 12 21  1  0
  1 22  1  0
  2 23  1  0
  3 24  1  6
  4 25  1  0
  4 26  1  0
  5 27  1  1
  9 28  1  0
 10 29  1  0
 11 30  1  0
 11 31  1  0
 13 32  1  0
 13 33  1  0
 14 34  1  0
 14 35  1  0
 18 36  1  0
 18 37  1  0
 18 38  1  0
 20 39  1  0
 21 40  1  0
 21 41  1  0
 21 42  1  0
M  END
$$$$
