PDB_DB00218_88
     RDKit          3D

 53 57  0  0  0  0  0  0  0  0999 V2000
  -17.2210   43.9140  -11.8190 F   0  0  0  0  0  0  0  0  0  0  0  0
  -18.0770   46.6410  -15.6480 O   0  0  0  0  0  0  0  0  0  0  0  0
  -21.9040   43.0420  -12.9470 O   0  0  0  0  0  0  0  0  0  0  0  0
  -24.3530   43.1550  -14.2740 O   0  0  0  0  0  0  0  0  0  0  0  0
  -24.3940   44.5860  -16.0590 O   0  0  0  0  0  0  0  0  0  0  0  0
  -16.2620   45.7900  -13.7230 N   0  0  0  0  0  0  0  0  0  0  0  0
  -13.4810   46.4570  -12.9760 N   0  0  0  0  0  0  0  0  0  0  0  0
  -20.7050   45.7080  -15.7140 N   0  0  0  0  0  0  0  0  0  0  0  0
  -15.2570   47.9520  -13.5360 C   0  0  2  0  0  0  0  0  0  0  0  0
  -14.7530   47.0340  -12.4660 C   0  0  1  0  0  0  0  0  0  0  0  0
  -16.1450   47.0760  -14.3950 C   0  0  0  0  0  0  0  0  0  0  0  0
  -15.7640   45.9140  -12.3750 C   0  0  0  0  0  0  0  0  0  0  0  0
  -14.1010   48.5410  -14.3060 C   0  0  0  0  0  0  0  0  0  0  0  0
  -20.3670   46.6720  -16.7510 C   0  0  0  0  0  0  0  0  0  0  0  0
  -13.4690   47.4610  -15.1430 C   0  0  0  0  0  0  0  0  0  0  0  0
  -21.2160   47.9000  -16.9060 C   0  0  0  0  0  0  0  0  0  0  0  0
  -19.8040   48.0160  -16.4110 C   0  0  0  0  0  0  0  0  0  0  0  0
  -13.5330   46.1430  -14.4190 C   0  0  0  0  0  0  0  0  0  0  0  0
  -17.5900   45.3040  -13.7330 C   0  0  0  0  0  0  0  0  0  0  0  0
  -19.7870   45.2820  -14.7480 C   0  0  0  0  0  0  0  0  0  0  0  0
  -18.4860   45.7320  -14.6980 C   0  0  0  0  0  0  0  0  0  0  0  0
  -20.1870   44.3690  -13.8020 C   0  0  0  0  0  0  0  0  0  0  0  0
  -18.0250   44.3870  -12.7920 C   0  0  0  0  0  0  0  0  0  0  0  0
  -21.9750   45.2300  -15.7130 C   0  0  0  0  0  0  0  0  0  0  0  0
  -19.3210   43.9230  -12.8330 C   0  0  0  0  0  0  0  0  0  0  0  0
  -22.4540   44.3520  -14.8440 C   0  0  0  0  0  0  0  0  0  0  0  0
  -21.5590   43.8480  -13.7940 C   0  0  0  0  0  0  0  0  0  0  0  0
  -23.8780   43.9930  -15.0740 C   0  0  0  0  0  0  0  0  0  0  0  0
  -17.0090   45.9460  -16.2700 C   0  0  0  0  0  0  0  0  0  0  0  0
  -25.3396   44.4172  -16.2985 H   0  0  0  0  0  0  0  0  0  0  0  0
  -12.7234   47.1357  -12.8139 H   0  0  0  0  0  0  0  0  0  0  0  0
  -15.8141   48.8160  -13.1446 H   0  0  0  0  0  0  0  0  0  0  0  0
  -14.6073   47.5349  -11.4975 H   0  0  0  0  0  0  0  0  0  0  0  0
  -15.6936   46.9419  -15.3891 H   0  0  0  0  0  0  0  0  0  0  0  0
  -17.1345   47.5371  -14.5301 H   0  0  0  0  0  0  0  0  0  0  0  0
  -16.5757   46.1743  -11.6797 H   0  0  0  0  0  0  0  0  0  0  0  0
  -15.3291   44.9781  -11.9943 H   0  0  0  0  0  0  0  0  0  0  0  0
  -14.4655   49.3478  -14.9588 H   0  0  0  0  0  0  0  0  0  0  0  0
  -13.3584   48.9511  -13.6058 H   0  0  0  0  0  0  0  0  0  0  0  0
  -20.0381   45.8497  -17.4034 H   0  0  0  0  0  0  0  0  0  0  0  0
  -14.0083   47.3782  -16.0981 H   0  0  0  0  0  0  0  0  0  0  0  0
  -12.4161   47.7191  -15.3295 H   0  0  0  0  0  0  0  0  0  0  0  0
  -21.4791   48.2643  -17.9100 H   0  0  0  0  0  0  0  0  0  0  0  0
  -22.2008   48.2183  -16.5333 H   0  0  0  0  0  0  0  0  0  0  0  0
  -19.6095   48.2810  -15.3613 H   0  0  0  0  0  0  0  0  0  0  0  0
  -18.9166   48.5877  -16.7202 H   0  0  0  0  0  0  0  0  0  0  0  0
  -12.6779   45.5115  -14.7020 H   0  0  0  0  0  0  0  0  0  0  0  0
  -14.4499   45.5917  -14.6745 H   0  0  0  0  0  0  0  0  0  0  0  0
  -22.6581   45.5992  -16.4922 H   0  0  0  0  0  0  0  0  0  0  0  0
  -19.6645   43.1918  -12.0864 H   0  0  0  0  0  0  0  0  0  0  0  0
  -16.3515   45.5181  -15.4989 H   0  0  0  0  0  0  0  0  0  0  0  0
  -17.4134   45.1376  -16.8968 H   0  0  0  0  0  0  0  0  0  0  0  0
  -16.4336   46.6431  -16.8968 H   0  0  0  0  0  0  0  0  0  0  0  0
  7 10  1  0
  9 10  1  0
  6 11  1  0
  9 11  1  0
  6 12  1  0
 10 12  1  0
  9 13  1  0
  8 14  1  0
 13 15  1  0
 14 16  1  0
 14 17  1  0
 16 17  1  0
  7 18  1  0
 15 18  1  0
  6 19  1  0
  8 20  1  0
  2 21  1  0
 19 21  2  0
 20 21  1  0
 20 22  2  0
  1 23  1  0
 19 23  1  0
  8 24  1  0
 22 25  1  0
 23 25  2  0
 24 26  2  0
 22 27  1  0
 26 27  1  0
 27  3  2  0
  5 28  1  0
 26 28  1  0
 28  4  2  0
  2 29  1  0
  5 30  1  0
  7 31  1  0
  9 32  1  1
 10 33  1  1
 11 34  1  0
 11 35  1  0
 12 36  1  0
 12 37  1  0
 13 38  1  0
 13 39  1  0
 14 40  1  0
 15 41  1  0
 15 42  1  0
 16 43  1  0
 16 44  1  0
 17 45  1  0
 17 46  1  0
 18 47  1  0
 18 48  1  0
 24 49  1  0
 25 50  1  0
 29 51  1  0
 29 52  1  0
 29 53  1  0
M  END
$$$$
