PDB_DB06203_97
     RDKit          3D

 46 48  0  0  0  0  0  0  0  0999 V2000
   83.1190  -21.7530   45.7740 O   0  0  0  0  0  0  0  0  0  0  0  0
   83.8830  -22.7400   45.6620 C   0  0  0  0  0  0  0  0  0  0  0  0
   84.5190  -22.9420   44.4780 N   0  0  0  0  0  0  0  0  0  0  0  0
   84.2760  -21.9940   43.3700 C   0  0  0  0  0  0  0  0  0  0  0  0
   84.0530  -23.5850   46.7040 N   0  0  0  0  0  0  0  0  0  0  0  0
   83.3340  -23.3070   47.9760 C   0  0  0  0  0  0  0  0  0  0  0  0
   81.8070  -23.3160   47.8680 C   0  0  0  0  0  0  0  0  0  0  0  0
   81.0720  -24.3460   47.2330 C   0  0  0  0  0  0  0  0  0  0  0  0
   81.6370  -25.3790   46.6660 C   0  0  0  0  0  0  0  0  0  0  0  0
   82.1290  -26.3210   46.1680 N   0  0  0  0  0  0  0  0  0  0  0  0
   79.6690  -24.2570   47.1930 C   0  0  0  0  0  0  0  0  0  0  0  0
   78.9970  -23.1740   47.7850 C   0  0  0  0  0  0  0  0  0  0  0  0
   79.7250  -22.1750   48.4400 C   0  0  0  0  0  0  0  0  0  0  0  0
   81.1200  -22.2570   48.4650 C   0  0  0  0  0  0  0  0  0  0  0  0
   84.8980  -24.6570   46.5690 C   0  0  0  0  0  0  0  0  0  0  0  0
   85.5560  -24.8870   45.3540 C   0  0  0  0  0  0  0  0  0  0  0  0
   85.3450  -24.0000   44.3180 C   0  0  0  0  0  0  0  0  0  0  0  0
   85.9470  -24.2130   43.2500 O   0  0  0  0  0  0  0  0  0  0  0  0
   85.3040  -25.5020   47.6320 N   0  0  0  0  0  0  0  0  0  0  0  0
   85.2860  -26.9800   47.4900 C   0  0  0  0  0  0  0  0  0  0  0  0
   85.0050  -27.7480   48.7920 C   0  0  2  0  0  0  0  0  0  0  0  0
   83.5660  -27.7040   49.1620 N   0  0  0  0  0  0  0  0  0  0  0  0
   85.8590  -27.2120   49.9310 C   0  0  0  0  0  0  0  0  0  0  0  0
   85.7160  -25.7020   50.0770 C   0  0  0  0  0  0  0  0  0  0  0  0
   86.0270  -24.9660   48.7920 C   0  0  0  0  0  0  0  0  0  0  0  0
   84.0227  -21.0059   43.7817 H   0  0  0  0  0  0  0  0  0  0  0  0
   85.1822  -21.9123   42.7519 H   0  0  0  0  0  0  0  0  0  0  0  0
   83.4422  -22.3584   42.7519 H   0  0  0  0  0  0  0  0  0  0  0  0
   83.6293  -24.0716   48.7096 H   0  0  0  0  0  0  0  0  0  0  0  0
   83.6164  -22.2863   48.2735 H   0  0  0  0  0  0  0  0  0  0  0  0
   79.0896  -25.0461   46.6914 H   0  0  0  0  0  0  0  0  0  0  0  0
   77.9000  -23.1119   47.7334 H   0  0  0  0  0  0  0  0  0  0  0  0
   79.2068  -21.3367   48.9285 H   0  0  0  0  0  0  0  0  0  0  0  0
   81.6930  -21.4649   48.9692 H   0  0  0  0  0  0  0  0  0  0  0  0
   86.2236  -25.7522   45.2289 H   0  0  0  0  0  0  0  0  0  0  0  0
   84.5058  -27.2445   46.7611 H   0  0  0  0  0  0  0  0  0  0  0  0
   86.2963  -27.2732   47.1687 H   0  0  0  0  0  0  0  0  0  0  0  0
   85.2722  -28.7998   48.6120 H   0  0  0  0  0  0  0  0  0  0  0  0
   83.4752  -27.7012   50.1880 H   0  0  0  0  0  0  0  0  0  0  0  0
   83.1385  -26.8495   48.7772 H   0  0  0  0  0  0  0  0  0  0  0  0
   85.5450  -27.6927   50.8693 H   0  0  0  0  0  0  0  0  0  0  0  0
   86.9120  -27.4377   49.7071 H   0  0  0  0  0  0  0  0  0  0  0  0
   84.6822  -25.4722   50.3743 H   0  0  0  0  0  0  0  0  0  0  0  0
   86.4377  -25.3688   50.8373 H   0  0  0  0  0  0  0  0  0  0  0  0
   87.1069  -25.0424   48.5973 H   0  0  0  0  0  0  0  0  0  0  0  0
   85.7054  -23.9226   48.9255 H   0  0  0  0  0  0  0  0  0  0  0  0
  1  2  2  0
  2  3  1  0
  3  4  1  0
  2  5  1  0
  5  6  1  0
  6  7  1  0
  7  8  2  0
  8  9  1  0
  9 10  3  0
  8 11  1  0
 11 12  2  0
 12 13  1  0
  7 14  1  0
 13 14  2  0
  5 15  1  0
 15 16  2  0
  3 17  1  0
 16 17  1  0
 17 18  2  0
 15 19  1  0
 19 20  1  0
 20 21  1  0
 21 22  1  0
 21 23  1  0
 23 24  1  0
 19 25  1  0
 24 25  1  0
  4 26  1  0
  4 27  1  0
  4 28  1  0
  6 29  1  0
  6 30  1  0
 11 31  1  0
 12 32  1  0
 13 33  1  0
 14 34  1  0
 16 35  1  0
 20 36  1  0
 20 37  1  0
 21 38  1  6
 22 39  1  0
 22 40  1  0
 23 41  1  0
 23 42  1  0
 24 43  1  0
 24 44  1  0
 25 45  1  0
 25 46  1  0
M  END
$$$$
