PDB_DB04729_98
     RDKit          3D

 70 72  0  0  0  0  0  0  0  0999 V2000
   51.3010   50.2440  -25.1000 C   0  0  2  0  0  0  0  0  0  0  0  0
   52.1330   49.9160  -23.9500 O   0  0  0  0  0  0  0  0  0  0  0  0
   51.8690   51.4830  -25.8340 C   0  0  2  0  0  0  0  0  0  0  0  0
   53.2130   51.2040  -26.2300 N   0  0  0  0  0  0  0  0  0  0  0  0
   51.7750   52.7650  -24.9040 C   0  0  0  0  0  0  0  0  0  0  0  0
   50.2630   52.9990  -24.5300 C   0  0  0  0  0  0  0  0  0  0  0  0
   49.7170   51.6910  -23.7890 C   0  0  2  0  0  0  0  0  0  0  0  0
   49.8960   50.4860  -24.6160 O   0  0  0  0  0  0  0  0  0  0  0  0
   48.2590   51.8070  -23.4030 C   0  0  0  0  0  0  0  0  0  0  0  0
   47.8200   50.6620  -22.6560 N   0  0  0  0  0  0  0  0  0  0  0  0
   53.7200   46.3740  -22.0840 C   0  0  2  0  0  0  0  0  0  0  0  0
   54.1700   45.0260  -21.9220 N   0  0  0  0  0  0  0  0  0  0  0  0
   52.2040   46.3670  -22.5170 C   0  0  0  0  0  0  0  0  0  0  0  0
   51.6890   47.8580  -22.7030 C   0  0  2  0  0  0  0  0  0  0  0  0
   50.2730   47.8630  -23.1080 N   0  0  0  0  0  0  0  0  0  0  0  0
   52.5840   48.6070  -23.7870 C   0  0  2  0  0  0  0  0  0  0  0  0
   54.1080   48.5840  -23.3320 C   0  0  2  0  0  0  0  0  0  0  0  0
   54.9140   49.2470  -24.3000 O   0  0  0  0  0  0  0  0  0  0  0  0
   54.5980   47.0880  -23.1490 C   0  0  1  0  0  0  0  0  0  0  0  0
   55.9700   47.1000  -22.7340 O   0  0  0  0  0  0  0  0  0  0  0  0
   57.1120   46.8420  -23.6270 C   0  0  2  0  0  0  0  0  0  0  0  0
   58.3070   46.4170  -22.7130 C   0  0  2  0  0  0  0  0  0  0  0  0
   57.9430   45.2810  -21.9610 O   0  0  0  0  0  0  0  0  0  0  0  0
   58.7130   47.6560  -21.7860 C   0  0  1  0  0  0  0  0  0  0  0  0
   59.8540   47.3150  -20.8720 N   0  0  0  0  0  0  0  0  0  0  0  0
   59.1240   48.9400  -22.6970 C   0  0  1  0  0  0  0  0  0  0  0  0
   60.2710   48.6600  -23.4570 O   0  0  0  0  0  0  0  0  0  0  0  0
   57.9540   49.2970  -23.6680 C   0  0  0  0  0  0  0  0  0  0  0  0
   57.4960   48.0670  -24.4280 O   0  0  0  0  0  0  0  0  0  0  0  0
   59.5330   50.2210  -21.9590 C   0  0  0  0  0  0  0  0  0  0  0  0
   59.5370   47.0830  -19.4550 C   0  0  0  0  0  0  0  0  0  0  0  0
   51.2955   49.4121  -25.8197 H   0  0  0  0  0  0  0  0  0  0  0  0
   51.2767   51.6990  -26.7354 H   0  0  0  0  0  0  0  0  0  0  0  0
   53.7995   51.0822  -25.3921 H   0  0  0  0  0  0  0  0  0  0  0  0
   53.2333   50.3409  -26.7917 H   0  0  0  0  0  0  0  0  0  0  0  0
   52.3633   52.6037  -23.9886 H   0  0  0  0  0  0  0  0  0  0  0  0
   52.1740   53.6441  -25.4312 H   0  0  0  0  0  0  0  0  0  0  0  0
   50.1761   53.8681  -23.8614 H   0  0  0  0  0  0  0  0  0  0  0  0
   49.6745   53.1912  -25.4393 H   0  0  0  0  0  0  0  0  0  0  0  0
   50.3149   51.6002  -22.8702 H   0  0  0  0  0  0  0  0  0  0  0  0
   48.1227   52.7088  -22.7880 H   0  0  0  0  0  0  0  0  0  0  0  0
   47.6616   51.8677  -24.3247 H   0  0  0  0  0  0  0  0  0  0  0  0
   47.8959   50.8599  -21.6481 H   0  0  0  0  0  0  0  0  0  0  0  0
   46.8393   50.4534  -22.8921 H   0  0  0  0  0  0  0  0  0  0  0  0
   53.8119   46.9209  -21.1340 H   0  0  0  0  0  0  0  0  0  0  0  0
   54.2432   44.8068  -20.9183 H   0  0  0  0  0  0  0  0  0  0  0  0
   53.4977   44.3840  -22.3655 H   0  0  0  0  0  0  0  0  0  0  0  0
   52.0985   45.8233  -23.4674 H   0  0  0  0  0  0  0  0  0  0  0  0
   51.6066   45.8717  -21.7374 H   0  0  0  0  0  0  0  0  0  0  0  0
   51.7751   48.3899  -21.7440 H   0  0  0  0  0  0  0  0  0  0  0  0
   49.6759   47.8651  -22.2688 H   0  0  0  0  0  0  0  0  0  0  0  0
   50.0794   48.7047  -23.6692 H   0  0  0  0  0  0  0  0  0  0  0  0
   52.5012   48.0898  -24.7543 H   0  0  0  0  0  0  0  0  0  0  0  0
   54.2015   49.1086  -22.3697 H   0  0  0  0  0  0  0  0  0  0  0  0
   55.5911   49.8039  -23.8401 H   0  0  0  0  0  0  0  0  0  0  0  0
   54.5062   46.5426  -24.0999 H   0  0  0  0  0  0  0  0  0  0  0  0
   56.8458   46.0598  -24.3531 H   0  0  0  0  0  0  0  0  0  0  0  0
   59.1849   46.1421  -23.3161 H   0  0  0  0  0  0  0  0  0  0  0  0
   58.0097   45.4892  -20.9954 H   0  0  0  0  0  0  0  0  0  0  0  0
   57.8343   47.9021  -21.1717 H   0  0  0  0  0  0  0  0  0  0  0  0
   60.2954   46.4579  -21.2346 H   0  0  0  0  0  0  0  0  0  0  0  0
   61.0314   48.4744  -22.8508 H   0  0  0  0  0  0  0  0  0  0  0  0
   57.1106   49.6970  -23.0860 H   0  0  0  0  0  0  0  0  0  0  0  0
   58.3089   50.0476  -24.3895 H   0  0  0  0  0  0  0  0  0  0  0  0
   59.4790   50.0519  -20.8734 H   0  0  0  0  0  0  0  0  0  0  0  0
   60.5622   50.4917  -22.2372 H   0  0  0  0  0  0  0  0  0  0  0  0
   58.8511   51.0381  -22.2372 H   0  0  0  0  0  0  0  0  0  0  0  0
   60.2644   47.6154  -18.8246 H   0  0  0  0  0  0  0  0  0  0  0  0
   58.5243   47.4548  -19.2402 H   0  0  0  0  0  0  0  0  0  0  0  0
   59.5851   46.0053  -19.2402 H   0  0  0  0  0  0  0  0  0  0  0  0
  2  1  1  0
  3  1  1  0
  4  3  1  0
  5  3  1  0
  6  5  1  0
  7  6  1  0
  8  7  1  0
  8  1  1  0
  9  7  1  0
 10  9  1  0
 12 11  1  0
 13 11  1  0
 14 13  1  0
 15 14  1  0
 16 14  1  0
 16  2  1  0
 17 16  1  0
 18 17  1  0
 19 17  1  0
 19 11  1  0
 20 19  1  0
 21 20  1  0
 22 21  1  0
 23 22  1  0
 24 22  1  0
 25 24  1  0
 26 24  1  0
 26 27  1  6
 28 26  1  0
 29 21  1  0
 29 28  1  0
 30 26  1  0
 31 25  1  0
  1 32  1  6
  3 33  1  6
  4 34  1  0
  4 35  1  0
  5 36  1  0
  5 37  1  0
  6 38  1  0
  6 39  1  0
  7 40  1  1
  9 41  1  0
  9 42  1  0
 10 43  1  0
 10 44  1  0
 11 45  1  1
 12 46  1  0
 12 47  1  0
 13 48  1  0
 13 49  1  0
 14 50  1  1
 15 51  1  0
 15 52  1  0
 16 53  1  6
 17 54  1  1
 18 55  1  0
 19 56  1  6
 21 57  1  6
 22 58  1  6
 23 59  1  0
 24 60  1  1
 25 61  1  0
 27 62  1  0
 28 63  1  0
 28 64  1  0
 30 65  1  0
 30 66  1  0
 30 67  1  0
 31 68  1  0
 31 69  1  0
 31 70  1  0
M  END
$$$$
