PDB_DB00712_90
     RDKit          3D

 31 32  0  0  0  0  0  0  0  0999 V2000
   15.4050   48.9370   65.7220 C   0  0  0  0  0  0  0  0  0  0  0  0
   15.8450   50.1170   66.3070 C   0  0  0  0  0  0  0  0  0  0  0  0
   15.3670   50.4900   67.5650 C   0  0  0  0  0  0  0  0  0  0  0  0
   14.4330   49.6550   68.2440 C   0  0  0  0  0  0  0  0  0  0  0  0
   13.9850   48.4600   67.6550 C   0  0  0  0  0  0  0  0  0  0  0  0
   14.4710   48.1000   66.3900 C   0  0  0  0  0  0  0  0  0  0  0  0
   15.8090   51.8030   68.2040 C   0  0  0  0  0  0  0  0  0  0  0  0
   17.1330   52.2150   68.1570 C   0  0  0  0  0  0  0  0  0  0  0  0
   17.5010   53.4350   68.7810 C   0  0  0  0  0  0  0  0  0  0  0  0
   16.5230   54.2170   69.4390 C   0  0  0  0  0  0  0  0  0  0  0  0
   15.2100   53.7930   69.4730 C   0  0  0  0  0  0  0  0  0  0  0  0
   14.8460   52.6230   68.8810 C   0  0  0  0  0  0  0  0  0  0  0  0
   16.8820   55.5060   70.1420 C   0  0  2  0  0  0  0  0  0  0  0  0
   18.1130   56.1320   69.5320 C   0  0  0  0  0  0  0  0  0  0  0  0
   17.1000   55.1970   71.6210 C   0  0  0  0  0  0  0  0  0  0  0  0
   18.0730   54.5150   71.9890 O   0  0  0  0  0  0  0  0  0  0  0  0
   16.2230   55.6320   72.5180 O   0  0  0  0  0  0  0  0  0  0  0  0
   13.5860   52.2270   68.9830 F   0  0  0  0  0  0  0  0  0  0  0  0
   15.7836   48.6470   64.7307 H   0  0  0  0  0  0  0  0  0  0  0  0
   16.5686   50.7567   65.7805 H   0  0  0  0  0  0  0  0  0  0  0  0
   14.0598   49.9478   69.2365 H   0  0  0  0  0  0  0  0  0  0  0  0
   13.2633   47.8163   68.1791 H   0  0  0  0  0  0  0  0  0  0  0  0
   14.1290   47.1690   65.9144 H   0  0  0  0  0  0  0  0  0  0  0  0
   17.8884   51.6032   67.6421 H   0  0  0  0  0  0  0  0  0  0  0  0
   18.5474   53.7729   68.7531 H   0  0  0  0  0  0  0  0  0  0  0  0
   14.4518   54.4057   69.9827 H   0  0  0  0  0  0  0  0  0  0  0  0
   16.0642   56.2329   70.0289 H   0  0  0  0  0  0  0  0  0  0  0  0
   18.7855   56.4740   70.3325 H   0  0  0  0  0  0  0  0  0  0  0  0
   18.6323   55.3885   68.9095 H   0  0  0  0  0  0  0  0  0  0  0  0
   17.8181   56.9896   68.9095 H   0  0  0  0  0  0  0  0  0  0  0  0
   18.2056   54.3201   72.9505 H   0  0  0  0  0  0  0  0  0  0  0  0
  1  2  2  0
  2  3  1  0
  3  4  2  0
  4  5  1  0
  1  6  1  0
  5  6  2  0
  3  7  1  0
  7  8  2  0
  8  9  1  0
  9 10  2  0
 10 11  1  0
  7 12  1  0
 11 12  2  0
 10 13  1  0
 13 14  1  0
 13 15  1  0
 15 16  1  0
 15 17  2  0
 12 18  1  0
  1 19  1  0
  2 20  1  0
  4 21  1  0
  5 22  1  0
  6 23  1  0
  8 24  1  0
  9 25  1  0
 11 26  1  0
 13 27  1  1
 14 28  1  0
 14 29  1  0
 14 30  1  0
 16 31  1  0
M  END
$$$$
