PDB_DB12332_99
     RDKit          3D

 42 45  0  0  0  0  0  0  0  0999 V2000
   95.4790    4.1170  121.6780 O   0  0  0  0  0  0  0  0  0  0  0  0
   94.7560    3.1770  121.3800 C   0  0  0  0  0  0  0  0  0  0  0  0
   94.6580    2.2470  122.3540 N   0  0  0  0  0  0  0  0  0  0  0  0
   93.9270    0.9850  122.3580 C   0  0  0  0  0  0  0  0  0  0  0  0
   92.4660    1.1460  122.0520 C   0  0  0  0  0  0  0  0  0  0  0  0
   92.2760    1.5440  120.7570 C   0  0  0  0  0  0  0  0  0  0  0  0
   92.9510    2.3970  119.9890 C   0  0  0  0  0  0  0  0  0  0  0  0
   94.0300    3.1260  120.2170 C   0  0  0  0  0  0  0  0  0  0  0  0
   94.4940    3.9270  119.1920 C   0  0  0  0  0  0  0  0  0  0  0  0
   93.8570    3.9680  117.9940 C   0  0  0  0  0  0  0  0  0  0  0  0
   94.2420    4.5680  117.2310 F   0  0  0  0  0  0  0  0  0  0  0  0
   92.7520    3.1930  117.8170 C   0  0  0  0  0  0  0  0  0  0  0  0
   92.3390    2.4380  118.8110 C   0  0  0  0  0  0  0  0  0  0  0  0
   91.3050    1.6350  118.8480 N   0  0  0  0  0  0  0  0  0  0  0  0
   91.2700    1.0770  120.0320 C   0  0  0  0  0  0  0  0  0  0  0  0
   90.2660    0.2470  120.3190 C   0  0  0  0  0  0  0  0  0  0  0  0
   89.9130   -0.1980  121.5830 C   0  0  0  0  0  0  0  0  0  0  0  0
   88.8000   -1.0240  121.7350 C   0  0  0  0  0  0  0  0  0  0  0  0
   89.4590   -0.1010  119.2500 C   0  0  0  0  0  0  0  0  0  0  0  0
   88.3600   -0.9170  119.4010 C   0  0  0  0  0  0  0  0  0  0  0  0
   88.0210   -1.3820  120.6450 C   0  0  0  0  0  0  0  0  0  0  0  0
   86.9010   -2.1970  120.7230 C   0  0  0  0  0  0  0  0  0  0  0  0
   86.6790   -2.7820  122.0380 N   0  0  0  0  0  0  0  0  0  0  0  0
   85.4720   -3.5970  121.9610 C   0  0  0  0  0  0  0  0  0  0  0  0
   95.1743    2.4596  123.2195 H   0  0  0  0  0  0  0  0  0  0  0  0
   94.3714    0.3213  121.6017 H   0  0  0  0  0  0  0  0  0  0  0  0
   94.0040    0.5662  123.3722 H   0  0  0  0  0  0  0  0  0  0  0  0
   91.9573    0.1837  122.2106 H   0  0  0  0  0  0  0  0  0  0  0  0
   92.0516    1.9162  122.7191 H   0  0  0  0  0  0  0  0  0  0  0  0
   95.3932    4.5409  119.3488 H   0  0  0  0  0  0  0  0  0  0  0  0
   92.2134    3.1983  116.8579 H   0  0  0  0  0  0  0  0  0  0  0  0
   90.6372    1.4713  118.0811 H   0  0  0  0  0  0  0  0  0  0  0  0
   90.5067    0.0983  122.4603 H   0  0  0  0  0  0  0  0  0  0  0  0
   88.5357   -1.3976  122.7353 H   0  0  0  0  0  0  0  0  0  0  0  0
   89.7027    0.2858  118.2495 H   0  0  0  0  0  0  0  0  0  0  0  0
   87.7555   -1.1950  118.5251 H   0  0  0  0  0  0  0  0  0  0  0  0
   86.0181   -1.5962  120.4592 H   0  0  0  0  0  0  0  0  0  0  0  0
   87.0699   -3.0337  120.0292 H   0  0  0  0  0  0  0  0  0  0  0  0
   87.4831   -3.3695  122.3012 H   0  0  0  0  0  0  0  0  0  0  0  0
   85.1232   -3.8325  122.9773 H   0  0  0  0  0  0  0  0  0  0  0  0
   84.6886   -3.0422  121.4238 H   0  0  0  0  0  0  0  0  0  0  0  0
   85.6938   -4.5309  121.4238 H   0  0  0  0  0  0  0  0  0  0  0  0
  1  2  2  0
  2  3  1  0
  3  4  1  0
  4  5  1  0
  5  6  1  0
  6  7  1  0
  2  8  1  0
  7  8  2  0
  8  9  1  0
  9 10  2  0
 10 11  1  0
 10 12  1  0
  7 13  1  0
 12 13  2  0
 13 14  1  0
  6 15  2  0
 14 15  1  0
 15 16  1  0
 16 17  2  0
 17 18  1  0
 16 19  1  0
 19 20  2  0
 18 21  2  0
 20 21  1  0
 21 22  1  0
 22 23  1  0
 23 24  1  0
  3 25  1  0
  4 26  1  0
  4 27  1  0
  5 28  1  0
  5 29  1  0
  9 30  1  0
 12 31  1  0
 14 32  1  0
 17 33  1  0
 18 34  1  0
 19 35  1  0
 20 36  1  0
 22 37  1  0
 22 38  1  0
 23 39  1  0
 24 40  1  0
 24 41  1  0
 24 42  1  0
M  END
$$$$
