PDB_DB08954_98
     RDKit          3D

 51 53  0  0  0  0  0  0  0  0999 V2000
  -61.1540   32.7870   16.5580 C   0  0  0  0  0  0  0  0  0  0  0  0
  -54.6530   33.7500   12.1490 N   0  0  0  0  0  0  0  0  0  0  0  0
  -54.3200   33.5200    9.2400 O   0  0  0  0  0  0  0  0  0  0  0  0
  -49.8570   35.2400    9.6740 C   0  0  0  0  0  0  0  0  0  0  0  0
  -48.0860   34.6000    8.0880 O   0  0  0  0  0  0  0  0  0  0  0  0
  -50.1940   33.5870    8.0200 C   0  0  0  0  0  0  0  0  0  0  0  0
  -59.0000   34.0870   15.3300 C   0  0  0  0  0  0  0  0  0  0  0  0
  -60.2000   33.9460   14.6390 C   0  0  0  0  0  0  0  0  0  0  0  0
  -61.2850   33.2990   15.2430 C   0  0  0  0  0  0  0  0  0  0  0  0
  -57.8710   34.8310   14.6900 C   0  0  0  0  0  0  0  0  0  0  0  0
  -56.5710   34.0270   14.2650 C   0  0  0  0  0  0  0  0  0  0  0  0
  -56.8610   33.1500   13.1570 C   0  0  0  0  0  0  0  0  0  0  0  0
  -59.9570   32.9330   17.2520 C   0  0  0  0  0  0  0  0  0  0  0  0
  -58.8770   33.5920   16.6480 C   0  0  0  0  0  0  0  0  0  0  0  0
  -55.6300   32.6740   12.4370 C   0  0  0  0  0  0  0  0  0  0  0  0
  -54.4020   34.6820   13.2130 C   0  0  0  0  0  0  0  0  0  0  0  0
  -55.6320   35.1140   13.9190 C   0  0  0  0  0  0  0  0  0  0  0  0
  -53.5420   33.2200   11.3410 C   0  0  2  0  0  0  0  0  0  0  0  0
  -53.4300   33.9020   10.0160 C   0  0  1  0  0  0  0  0  0  0  0  0
  -51.9980   34.1760    9.5480 C   0  0  0  0  0  0  0  0  0  0  0  0
  -51.1870   35.0640   10.1490 C   0  0  0  0  0  0  0  0  0  0  0  0
  -49.3990   34.4740    8.5950 C   0  0  0  0  0  0  0  0  0  0  0  0
  -51.5230   33.4170    8.5060 C   0  0  0  0  0  0  0  0  0  0  0  0
  -53.6820   31.7940   11.0140 C   0  0  0  0  0  0  0  0  0  0  0  0
  -62.0025   32.2719   17.0321 H   0  0  0  0  0  0  0  0  0  0  0  0
  -55.0930   33.1882    9.7621 H   0  0  0  0  0  0  0  0  0  0  0  0
  -49.1920   35.9742   10.1522 H   0  0  0  0  0  0  0  0  0  0  0  0
  -47.7950   34.0424    7.3235 H   0  0  0  0  0  0  0  0  0  0  0  0
  -49.8323   32.9852    7.1733 H   0  0  0  0  0  0  0  0  0  0  0  0
  -60.2961   34.3431   13.6177 H   0  0  0  0  0  0  0  0  0  0  0  0
  -62.2348   33.1886   14.6993 H   0  0  0  0  0  0  0  0  0  0  0  0
  -58.2699   35.3049   13.7810 H   0  0  0  0  0  0  0  0  0  0  0  0
  -57.5179   35.5104   15.4798 H   0  0  0  0  0  0  0  0  0  0  0  0
  -56.1655   33.3585   15.0387 H   0  0  0  0  0  0  0  0  0  0  0  0
  -57.4032   32.2725   13.5390 H   0  0  0  0  0  0  0  0  0  0  0  0
  -57.4591   33.7248   12.4346 H   0  0  0  0  0  0  0  0  0  0  0  0
  -59.8583   32.5325   18.2717 H   0  0  0  0  0  0  0  0  0  0  0  0
  -57.9345   33.7237   17.1996 H   0  0  0  0  0  0  0  0  0  0  0  0
  -55.9391   32.2216   11.4832 H   0  0  0  0  0  0  0  0  0  0  0  0
  -55.1283   31.9545   13.1008 H   0  0  0  0  0  0  0  0  0  0  0  0
  -53.7301   34.2060   13.9424 H   0  0  0  0  0  0  0  0  0  0  0  0
  -53.9550   35.5793   12.7603 H   0  0  0  0  0  0  0  0  0  0  0  0
  -56.1621   35.8294   13.2731 H   0  0  0  0  0  0  0  0  0  0  0  0
  -55.3006   35.5478   14.8740 H   0  0  0  0  0  0  0  0  0  0  0  0
  -52.6620   33.3949   11.9774 H   0  0  0  0  0  0  0  0  0  0  0  0
  -53.6906   34.9676   10.0966 H   0  0  0  0  0  0  0  0  0  0  0  0
  -51.5500   35.6523   11.0046 H   0  0  0  0  0  0  0  0  0  0  0  0
  -52.1784   32.6667    8.0397 H   0  0  0  0  0  0  0  0  0  0  0  0
  -53.7395   31.2086   11.9435 H   0  0  0  0  0  0  0  0  0  0  0  0
  -54.5995   31.6408   10.4269 H   0  0  0  0  0  0  0  0  0  0  0  0
  -52.8118   31.4653   10.4269 H   0  0  0  0  0  0  0  0  0  0  0  0
  7  8  2  0
  1  9  2  0
  8  9  1  0
  7 10  1  0
 10 11  1  0
 11 12  1  0
  1 13  1  0
  7 14  1  0
 13 14  2  0
  2 15  1  0
 12 15  1  0
  2 16  1  0
 11 17  1  0
 16 17  1  0
  2 18  1  0
  3 19  1  0
 18 19  1  0
 19 20  1  0
  4 21  2  0
 20 21  1  0
  4 22  1  0
  5 22  1  0
  6 22  2  0
  6 23  1  0
 20 23  2  0
 18 24  1  0
  1 25  1  0
  3 26  1  0
  4 27  1  0
  5 28  1  0
  6 29  1  0
  8 30  1  0
  9 31  1  0
 10 32  1  0
 10 33  1  0
 11 34  1  0
 12 35  1  0
 12 36  1  0
 13 37  1  0
 14 38  1  0
 15 39  1  0
 15 40  1  0
 16 41  1  0
 16 42  1  0
 17 43  1  0
 17 44  1  0
 18 45  1  1
 19 46  1  1
 21 47  1  0
 23 48  1  0
 24 49  1  0
 24 50  1  0
 24 51  1  0
M  END
$$$$
