PDB_DB00140_96
     RDKit          3D

 47 49  0  0  0  0  0  0  0  0999 V2000
   -7.1120   -7.1700   -8.4560 N   0  0  0  0  0  0  0  0  0  0  0  0
   -6.8980   -6.8540   -9.7470 C   0  0  0  0  0  0  0  0  0  0  0  0
   -7.9410   -6.6550  -10.5680 O   0  0  0  0  0  0  0  0  0  0  0  0
   -5.6040   -6.7380  -10.2320 N   0  0  0  0  0  0  0  0  0  0  0  0
   -4.5280   -6.9510   -9.3840 C   0  0  0  0  0  0  0  0  0  0  0  0
   -3.2770   -6.8400   -9.8480 O   0  0  0  0  0  0  0  0  0  0  0  0
   -4.7600   -7.2830   -8.0430 C   0  0  0  0  0  0  0  0  0  0  0  0
   -3.7470   -7.4990   -7.1870 N   0  0  0  0  0  0  0  0  0  0  0  0
   -3.9530   -7.8150   -5.8940 C   0  0  0  0  0  0  0  0  0  0  0  0
   -2.8590   -8.0320   -5.0470 C   0  0  0  0  0  0  0  0  0  0  0  0
   -3.0680   -8.3610   -3.7020 C   0  0  0  0  0  0  0  0  0  0  0  0
   -1.8880   -8.5980   -2.7910 C   0  0  0  0  0  0  0  0  0  0  0  0
   -4.3730   -8.4710   -3.2020 C   0  0  0  0  0  0  0  0  0  0  0  0
   -4.5960   -8.8310   -1.7520 C   0  0  0  0  0  0  0  0  0  0  0  0
   -5.4710   -8.2560   -4.0470 C   0  0  0  0  0  0  0  0  0  0  0  0
   -5.2650   -7.9280   -5.3970 C   0  0  0  0  0  0  0  0  0  0  0  0
   -6.3390   -7.7090   -6.2640 N   0  0  0  0  0  0  0  0  0  0  0  0
   -6.0920   -7.3840   -7.6000 C   0  0  0  0  0  0  0  0  0  0  0  0
   -7.7280   -7.8140   -5.7780 C   0  0  0  0  0  0  0  0  0  0  0  0
   -7.9790   -9.2090   -5.2020 C   0  0  2  0  0  0  0  0  0  0  0  0
   -6.8820  -10.0670   -5.5290 O   0  0  0  0  0  0  0  0  0  0  0  0
   -9.2690   -9.7800   -5.7880 C   0  0  2  0  0  0  0  0  0  0  0  0
   -9.3020   -9.5380   -7.1970 O   0  0  0  0  0  0  0  0  0  0  0  0
  -10.4690   -9.1050   -5.1260 C   0  0  2  0  0  0  0  0  0  0  0  0
  -10.4310   -9.3440   -3.7160 O   0  0  0  0  0  0  0  0  0  0  0  0
  -11.7610   -9.6780   -5.7050 C   0  0  0  0  0  0  0  0  0  0  0  0
  -11.7980  -11.0900   -5.4830 O   0  0  0  0  0  0  0  0  0  0  0  0
   -5.4427   -6.4942  -11.2197 H   0  0  0  0  0  0  0  0  0  0  0  0
   -1.8348   -7.9439   -5.4385 H   0  0  0  0  0  0  0  0  0  0  0  0
   -2.2150   -8.5323   -1.7428 H   0  0  0  0  0  0  0  0  0  0  0  0
   -1.4714   -9.5978   -2.9832 H   0  0  0  0  0  0  0  0  0  0  0  0
   -1.1177   -7.8366   -2.9832 H   0  0  0  0  0  0  0  0  0  0  0  0
   -4.1259   -8.0721   -1.1093 H   0  0  0  0  0  0  0  0  0  0  0  0
   -5.6758   -8.8686   -1.5454 H   0  0  0  0  0  0  0  0  0  0  0  0
   -4.1487   -9.8145   -1.5454 H   0  0  0  0  0  0  0  0  0  0  0  0
   -6.4940   -8.3442   -3.6525 H   0  0  0  0  0  0  0  0  0  0  0  0
   -7.8972   -7.0609   -4.9943 H   0  0  0  0  0  0  0  0  0  0  0  0
   -8.4174   -7.6416   -6.6176 H   0  0  0  0  0  0  0  0  0  0  0  0
   -8.0746   -9.1407   -4.1083 H   0  0  0  0  0  0  0  0  0  0  0  0
   -6.4609  -10.3964   -4.6958 H   0  0  0  0  0  0  0  0  0  0  0  0
   -9.3085  -10.8636   -5.6028 H   0  0  0  0  0  0  0  0  0  0  0  0
   -9.4339   -8.5709   -7.3627 H   0  0  0  0  0  0  0  0  0  0  0  0
  -10.4318   -8.0223   -5.3165 H   0  0  0  0  0  0  0  0  0  0  0  0
  -10.5667   -8.4906   -3.2329 H   0  0  0  0  0  0  0  0  0  0  0  0
  -12.6242   -9.2067   -5.2123 H   0  0  0  0  0  0  0  0  0  0  0  0
  -11.7998   -9.4757   -6.7855 H   0  0  0  0  0  0  0  0  0  0  0  0
  -11.8027  -11.2710   -4.5097 H   0  0  0  0  0  0  0  0  0  0  0  0
  1  2  1  0
  2  3  2  0
  2  4  1  0
  4  5  1  0
  5  6  2  0
  5  7  1  0
  7  8  2  0
  8  9  1  0
  9 10  2  0
 10 11  1  0
 11 12  1  0
 11 13  2  0
 13 14  1  0
 13 15  1  0
  9 16  1  0
 15 16  2  0
 16 17  1  0
  1 18  2  0
  7 18  1  0
 17 18  1  0
 17 19  1  0
 19 20  1  0
 20 21  1  0
 20 22  1  0
 22 23  1  0
 22 24  1  0
 24 25  1  0
 24 26  1  0
 26 27  1  0
  4 28  1  0
 10 29  1  0
 12 30  1  0
 12 31  1  0
 12 32  1  0
 14 33  1  0
 14 34  1  0
 14 35  1  0
 15 36  1  0
 19 37  1  0
 19 38  1  0
 20 39  1  1
 21 40  1  0
 22 41  1  6
 23 42  1  0
 24 43  1  1
 25 44  1  0
 26 45  1  0
 26 46  1  0
 27 47  1  0
M  END
$$$$
