PDB_DB00360_92
     RDKit          3D

 32 33  0  0  0  0  0  0  0  0999 V2000
   94.1970  -25.0850 -202.3780 N   0  0  0  0  0  0  0  0  0  0  0  0
   94.0460  -25.5340 -201.0950 C   0  0  0  0  0  0  0  0  0  0  0  0
   95.1210  -26.0560 -200.4290 N   0  0  0  0  0  0  0  0  0  0  0  0
   92.8330  -25.4690 -200.4920 N   0  0  0  0  0  0  0  0  0  0  0  0
   91.7650  -24.9590 -201.1520 C   0  0  0  0  0  0  0  0  0  0  0  0
   90.6470  -24.9000 -200.5830 O   0  0  0  0  0  0  0  0  0  0  0  0
   91.9200  -24.5070 -202.4600 C   0  0  0  0  0  0  0  0  0  0  0  0
   93.1540  -24.5700 -203.0690 C   0  0  0  0  0  0  0  0  0  0  0  0
   90.8840  -23.9940 -203.1370 N   0  0  0  0  0  0  0  0  0  0  0  0
   93.3240  -24.1400 -204.3400 N   0  0  0  0  0  0  0  0  0  0  0  0
   90.8980  -24.0240 -204.5900 C   0  0  2  0  0  0  0  0  0  0  0  0
   92.2450  -23.5590 -205.1420 C   0  0  0  0  0  0  0  0  0  0  0  0
   89.7100  -23.2060 -205.0860 C   0  0  1  0  0  0  0  0  0  0  0  0
   89.5340  -22.0780 -204.2200 O   0  0  0  0  0  0  0  0  0  0  0  0
   89.8990  -22.7210 -206.5110 C   0  0  2  0  0  0  0  0  0  0  0  0
   88.7250  -21.8490 -206.9290 C   0  0  0  0  0  0  0  0  0  0  0  0
   90.0000  -23.8480 -207.3870 O   0  0  0  0  0  0  0  0  0  0  0  0
   95.0128  -26.3956 -199.4626 H   0  0  0  0  0  0  0  0  0  0  0  0
   96.0385  -26.1094 -200.8940 H   0  0  0  0  0  0  0  0  0  0  0  0
   92.7228  -25.8095 -199.5262 H   0  0  0  0  0  0  0  0  0  0  0  0
   90.0856  -23.5825 -202.6329 H   0  0  0  0  0  0  0  0  0  0  0  0
   94.2584  -24.2253 -204.7649 H   0  0  0  0  0  0  0  0  0  0  0  0
   90.7870  -25.0524 -204.9642 H   0  0  0  0  0  0  0  0  0  0  0  0
   92.3022  -22.4615 -205.0948 H   0  0  0  0  0  0  0  0  0  0  0  0
   92.3468  -23.8850 -206.1876 H   0  0  0  0  0  0  0  0  0  0  0  0
   88.8220  -23.8551 -205.0749 H   0  0  0  0  0  0  0  0  0  0  0  0
   89.5804  -22.3756 -203.2769 H   0  0  0  0  0  0  0  0  0  0  0  0
   90.8214  -22.1246 -206.5694 H   0  0  0  0  0  0  0  0  0  0  0  0
   88.2132  -21.4688 -206.0326 H   0  0  0  0  0  0  0  0  0  0  0  0
   89.0919  -21.0027 -207.5283 H   0  0  0  0  0  0  0  0  0  0  0  0
   88.0208  -22.4448 -207.5283 H   0  0  0  0  0  0  0  0  0  0  0  0
   90.0743  -24.6770 -206.8510 H   0  0  0  0  0  0  0  0  0  0  0  0
  1  2  2  0
  2  3  1  0
  2  4  1  0
  4  5  1  0
  5  6  2  0
  5  7  1  0
  1  8  1  0
  7  8  2  0
  7  9  1  0
  8 10  1  0
  9 11  1  0
 10 12  1  0
 11 12  1  0
 11 13  1  0
 13 14  1  0
 13 15  1  0
 15 16  1  0
 15 17  1  0
  3 18  1  0
  3 19  1  0
  4 20  1  0
  9 21  1  0
 10 22  1  0
 11 23  1  1
 12 24  1  0
 12 25  1  0
 13 26  1  6
 14 27  1  0
 15 28  1  1
 16 29  1  0
 16 30  1  0
 16 31  1  0
 17 32  1  0
M  END
$$$$
