PDB_DB08910_99
     RDKit          3D

 31 33  0  0  0  0  0  0  0  0999 V2000
  -29.9130  -70.0830  -21.8950 C   0  0  0  0  0  0  0  0  0  0  0  0
  -29.6550  -69.6620  -23.2030 C   0  0  0  0  0  0  0  0  0  0  0  0
  -30.6800  -69.1150  -23.9800 C   0  0  0  0  0  0  0  0  0  0  0  0
  -31.9620  -69.0000  -23.4440 C   0  0  0  0  0  0  0  0  0  0  0  0
  -32.2160  -69.4190  -22.1420 C   0  0  0  0  0  0  0  0  0  0  0  0
  -31.1970  -69.9630  -21.3620 C   0  0  0  0  0  0  0  0  0  0  0  0
  -33.1790  -68.5190  -23.9380 C   0  0  0  0  0  0  0  0  0  0  0  0
  -34.1120  -68.6310  -22.9960 N   0  0  0  0  0  0  0  0  0  0  0  0
  -33.5720  -69.1710  -21.9180 C   0  0  0  0  0  0  0  0  0  0  0  0
  -31.4550  -70.3700  -20.1130 N   0  0  0  0  0  0  0  0  0  0  0  0
  -34.1960  -69.4060  -20.8880 O   0  0  0  0  0  0  0  0  0  0  0  0
  -35.5380  -68.2800  -23.1010 C   0  0  1  0  0  0  0  0  0  0  0  0
  -33.3590  -68.0580  -25.0620 O   0  0  0  0  0  0  0  0  0  0  0  0
  -35.8170  -66.7730  -23.0830 C   0  0  0  0  0  0  0  0  0  0  0  0
  -36.1500  -68.9450  -24.3430 C   0  0  0  0  0  0  0  0  0  0  0  0
  -37.3080  -68.4190  -24.9150 N   0  0  0  0  0  0  0  0  0  0  0  0
  -37.9420  -67.2880  -24.3730 C   0  0  0  0  0  0  0  0  0  0  0  0
  -37.3490  -66.5700  -23.1450 C   0  0  0  0  0  0  0  0  0  0  0  0
  -35.6340  -69.9540  -24.8370 O   0  0  0  0  0  0  0  0  0  0  0  0
  -38.9590  -66.8620  -24.9180 O   0  0  0  0  0  0  0  0  0  0  0  0
  -29.1028  -70.5094  -21.2853 H   0  0  0  0  0  0  0  0  0  0  0  0
  -28.6427  -69.7615  -23.6217 H   0  0  0  0  0  0  0  0  0  0  0  0
  -30.4767  -68.7776  -25.0071 H   0  0  0  0  0  0  0  0  0  0  0  0
  -32.4056  -70.2778  -19.7273 H   0  0  0  0  0  0  0  0  0  0  0  0
  -30.7029  -70.7753  -19.5377 H   0  0  0  0  0  0  0  0  0  0  0  0
  -36.0231  -68.6699  -22.1940 H   0  0  0  0  0  0  0  0  0  0  0  0
  -35.4189  -66.3307  -22.1579 H   0  0  0  0  0  0  0  0  0  0  0  0
  -35.3317  -66.2842  -23.9406 H   0  0  0  0  0  0  0  0  0  0  0  0
  -37.7066  -68.8685  -25.7516 H   0  0  0  0  0  0  0  0  0  0  0  0
  -37.8052  -66.9794  -22.2316 H   0  0  0  0  0  0  0  0  0  0  0  0
  -37.5611  -65.4937  -23.2268 H   0  0  0  0  0  0  0  0  0  0  0  0
  1  2  2  0
  2  3  1  0
  3  4  2  0
  4  5  1  0
  1  6  1  0
  5  6  2  0
  4  7  1  0
  7  8  1  0
  5  9  1  0
  8  9  1  0
  6 10  1  0
  9 11  2  0
  8 12  1  0
  7 13  2  0
 12 14  1  0
 12 15  1  0
 15 16  1  0
 16 17  1  0
 14 18  1  0
 17 18  1  0
 15 19  2  0
 17 20  2  0
  1 21  1  0
  2 22  1  0
  3 23  1  0
 10 24  1  0
 10 25  1  0
 12 26  1  1
 14 27  1  0
 14 28  1  0
 16 29  1  0
 18 30  1  0
 18 31  1  0
M  END
$$$$
