PDB_DB01254_98
     RDKit          3D

 59 62  0  0  0  0  0  0  0  0999 V2000
   45.0920   21.1980   44.0220 C   0  0  0  0  0  0  0  0  0  0  0  0
   45.2320   21.7900   42.8220 C   0  0  0  0  0  0  0  0  0  0  0  0
   46.1380   21.4040   41.6930 C   0  0  0  0  0  0  0  0  0  0  0  0
   37.8580   29.3200   46.7410 N   0  0  0  0  0  0  0  0  0  0  0  0
   49.5720   19.2410   38.6830 C   0  0  0  0  0  0  0  0  0  0  0  0
   49.9920   20.0530   39.7340 C   0  0  0  0  0  0  0  0  0  0  0  0
   49.1070   20.4520   40.7440 C   0  0  0  0  0  0  0  0  0  0  0  0
   49.6460   21.3380   41.8210 C   0  0  0  0  0  0  0  0  0  0  0  0
   41.9280   24.8430   44.3640 C   0  0  0  0  0  0  0  0  0  0  0  0
   40.9280   25.4650   45.1470 C   0  0  0  0  0  0  0  0  0  0  0  0
   40.3420   26.6350   44.6060 C   0  0  0  0  0  0  0  0  0  0  0  0
   41.7070   26.4480   42.7130 C   0  0  0  0  0  0  0  0  0  0  0  0
   42.2170   26.9640   41.3950 C   0  0  0  0  0  0  0  0  0  0  0  0
   38.4330   28.2200   44.5120 C   0  0  0  0  0  0  0  0  0  0  0  0
   38.7370   26.8970   46.5690 C   0  0  0  0  0  0  0  0  0  0  0  0
   38.6540   30.3560   47.4350 C   0  0  0  0  0  0  0  0  0  0  0  0
   38.5070   30.5380   48.9590 C   0  0  0  0  0  0  0  0  0  0  0  0
   42.5570   23.7240   44.8230 N   0  0  0  0  0  0  0  0  0  0  0  0
   43.4580   22.9160   44.1980 C   0  0  0  0  0  0  0  0  0  0  0  0
   43.9610   21.8100   44.7770 N   0  0  0  0  0  0  0  0  0  0  0  0
   44.2160   23.1540   42.6110 S   0  0  0  0  0  0  0  0  0  0  0  0
   46.8710   20.2910   41.6870 N   0  0  0  0  0  0  0  0  0  0  0  0
   47.7490   20.0250   40.6910 C   0  0  0  0  0  0  0  0  0  0  0  0
   47.3460   19.2730   39.5890 C   0  0  0  0  0  0  0  0  0  0  0  0
   48.2370   18.8860   38.5970 C   0  0  0  0  0  0  0  0  0  0  0  0
   45.7120   18.7580   39.4040 Cl  0  0  0  0  0  0  0  0  0  0  0  0
   46.1400   22.2090   40.7620 O   0  0  0  0  0  0  0  0  0  0  0  0
   40.7480   27.1060   43.3800 N   0  0  0  0  0  0  0  0  0  0  0  0
   42.2870   25.3460   43.1770 N   0  0  0  0  0  0  0  0  0  0  0  0
   39.3580   27.4000   45.3300 N   0  0  0  0  0  0  0  0  0  0  0  0
   38.0180   29.4710   45.2700 C   0  0  0  0  0  0  0  0  0  0  0  0
   37.9240   27.9510   47.3220 C   0  0  0  0  0  0  0  0  0  0  0  0
   39.7210   30.9530   49.5710 O   0  0  0  0  0  0  0  0  0  0  0  0
   45.7233   20.3776   44.3940 H   0  0  0  0  0  0  0  0  0  0  0  0
   50.2922   18.8864   37.9309 H   0  0  0  0  0  0  0  0  0  0  0  0
   51.0392   20.3875   39.7716 H   0  0  0  0  0  0  0  0  0  0  0  0
   49.3899   20.9171   42.8045 H   0  0  0  0  0  0  0  0  0  0  0  0
   50.7396   21.4076   41.7254 H   0  0  0  0  0  0  0  0  0  0  0  0
   49.2050   22.3412   41.7254 H   0  0  0  0  0  0  0  0  0  0  0  0
   40.6219   25.0617   46.1236 H   0  0  0  0  0  0  0  0  0  0  0  0
   42.9800   27.7359   41.5739 H   0  0  0  0  0  0  0  0  0  0  0  0
   42.6607   26.1353   40.8237 H   0  0  0  0  0  0  0  0  0  0  0  0
   41.3832   27.3980   40.8237 H   0  0  0  0  0  0  0  0  0  0  0  0
   38.9373   28.5126   43.5792 H   0  0  0  0  0  0  0  0  0  0  0  0
   37.5349   27.6258   44.2875 H   0  0  0  0  0  0  0  0  0  0  0  0
   38.0681   26.0635   46.3084 H   0  0  0  0  0  0  0  0  0  0  0  0
   39.5554   26.5864   47.2352 H   0  0  0  0  0  0  0  0  0  0  0  0
   39.7126   30.1280   47.2415 H   0  0  0  0  0  0  0  0  0  0  0  0
   38.2614   31.2983   47.0252 H   0  0  0  0  0  0  0  0  0  0  0  0
   37.7354   31.2979   49.1520 H   0  0  0  0  0  0  0  0  0  0  0  0
   38.2280   29.5649   49.3894 H   0  0  0  0  0  0  0  0  0  0  0  0
   42.3149   23.4486   45.7855 H   0  0  0  0  0  0  0  0  0  0  0  0
   46.7671   19.6168   42.4587 H   0  0  0  0  0  0  0  0  0  0  0  0
   47.8808   18.2954   37.7401 H   0  0  0  0  0  0  0  0  0  0  0  0
   37.0549   29.8089   44.8598 H   0  0  0  0  0  0  0  0  0  0  0  0
   38.8419   30.1869   45.1336 H   0  0  0  0  0  0  0  0  0  0  0  0
   38.3571   28.0421   48.3290 H   0  0  0  0  0  0  0  0  0  0  0  0
   36.8882   27.5827   47.2834 H   0  0  0  0  0  0  0  0  0  0  0  0
   39.6226   30.9194   50.5555 H   0  0  0  0  0  0  0  0  0  0  0  0
  1  2  2  0
  2  3  1  0
  5  6  2  0
  6  7  1  0
  7  8  1  0
  9 10  2  0
 10 11  1  0
 12 13  1  0
  4 16  1  0
 16 17  1  0
  9 18  1  0
 18 19  1  0
  1 20  1  0
 19 20  2  0
  2 21  1  0
 19 21  1  0
  3 22  1  0
  7 23  2  0
 22 23  1  0
 23 24  1  0
  5 25  1  0
 24 25  2  0
 24 26  1  0
  3 27  2  0
 11 28  2  0
 12 28  1  0
  9 29  1  0
 12 29  2  0
 11 30  1  0
 14 30  1  0
 15 30  1  0
  4 31  1  0
 14 31  1  0
  4 32  1  0
 15 32  1  0
 17 33  1  0
  1 34  1  0
  5 35  1  0
  6 36  1  0
  8 37  1  0
  8 38  1  0
  8 39  1  0
 10 40  1  0
 13 41  1  0
 13 42  1  0
 13 43  1  0
 14 44  1  0
 14 45  1  0
 15 46  1  0
 15 47  1  0
 16 48  1  0
 16 49  1  0
 17 50  1  0
 17 51  1  0
 18 52  1  0
 22 53  1  0
 25 54  1  0
 31 55  1  0
 31 56  1  0
 32 57  1  0
 32 58  1  0
 33 59  1  0
M  END
$$$$
