PDB_DB02546_89
     RDKit          3D

 39 39  0  0  0  0  0  0  0  0999 V2000
  -24.5780   10.1170  -17.6360 O   0  0  0  0  0  0  0  0  0  0  0  0
  -22.7800   12.1420  -17.9830 O   0  0  0  0  0  0  0  0  0  0  0  0
  -24.7230   11.4040  -18.3540 N   0  0  0  0  0  0  0  0  0  0  0  0
  -23.9780   12.3290  -18.0600 C   0  0  0  0  0  0  0  0  0  0  0  0
  -24.7020   13.6560  -17.9090 C   0  0  0  0  0  0  0  0  0  0  0  0
  -25.5950   13.8920  -16.7050 C   0  0  0  0  0  0  0  0  0  0  0  0
  -25.6300   15.4070  -16.5080 C   0  0  0  0  0  0  0  0  0  0  0  0
  -26.7790   15.9210  -15.6540 C   0  0  0  0  0  0  0  0  0  0  0  0
  -27.9020   16.4980  -16.5160 C   0  0  0  0  0  0  0  0  0  0  0  0
  -28.3350   17.9300  -16.1470 C   0  0  0  0  0  0  0  0  0  0  0  0
  -29.7920   18.0460  -15.6940 C   0  0  0  0  0  0  0  0  0  0  0  0
  -30.2410   17.2590  -14.8910 O   0  0  0  0  0  0  0  0  0  0  0  0
  -30.5630   19.0290  -16.1710 N   0  0  0  0  0  0  0  0  0  0  0  0
  -31.9060   19.0800  -15.9340 C   0  0  0  0  0  0  0  0  0  0  0  0
  -32.4070   19.7410  -14.8120 C   0  0  0  0  0  0  0  0  0  0  0  0
  -33.7870   19.8090  -14.5850 C   0  0  0  0  0  0  0  0  0  0  0  0
  -34.6720   19.2080  -15.4830 C   0  0  0  0  0  0  0  0  0  0  0  0
  -34.1740   18.5480  -16.6100 C   0  0  0  0  0  0  0  0  0  0  0  0
  -32.7970   18.4880  -16.8340 C   0  0  0  0  0  0  0  0  0  0  0  0
  -24.5964   10.2799  -16.6597 H   0  0  0  0  0  0  0  0  0  0  0  0
  -25.4375   11.5183  -19.0870 H   0  0  0  0  0  0  0  0  0  0  0  0
  -23.9308   14.4402  -17.8929 H   0  0  0  0  0  0  0  0  0  0  0  0
  -25.4052   13.6620  -18.7548 H   0  0  0  0  0  0  0  0  0  0  0  0
  -26.6073   13.5065  -16.8966 H   0  0  0  0  0  0  0  0  0  0  0  0
  -25.2169   13.3746  -15.8110 H   0  0  0  0  0  0  0  0  0  0  0  0
  -24.6874   15.7100  -16.0288 H   0  0  0  0  0  0  0  0  0  0  0  0
  -25.7734   15.8424  -17.5079 H   0  0  0  0  0  0  0  0  0  0  0  0
  -27.1791   15.0897  -15.0550 H   0  0  0  0  0  0  0  0  0  0  0  0
  -26.3956   16.7218  -15.0047 H   0  0  0  0  0  0  0  0  0  0  0  0
  -27.5612   16.5032  -17.5619 H   0  0  0  0  0  0  0  0  0  0  0  0
  -28.7802   15.8576  -16.3464 H   0  0  0  0  0  0  0  0  0  0  0  0
  -27.6901   18.2860  -15.3301 H   0  0  0  0  0  0  0  0  0  0  0  0
  -28.2380   18.5355  -17.0602 H   0  0  0  0  0  0  0  0  0  0  0  0
  -30.1287   19.7725  -16.7362 H   0  0  0  0  0  0  0  0  0  0  0  0
  -31.7128   20.2121  -14.1006 H   0  0  0  0  0  0  0  0  0  0  0  0
  -34.1739   20.3354  -13.7000 H   0  0  0  0  0  0  0  0  0  0  0  0
  -35.7564   19.2539  -15.3041 H   0  0  0  0  0  0  0  0  0  0  0  0
  -34.8675   18.0754  -17.3212 H   0  0  0  0  0  0  0  0  0  0  0  0
  -32.4106   17.9713  -17.7249 H   0  0  0  0  0  0  0  0  0  0  0  0
  3  1  1  0
  4  2  2  0
  4  3  1  0
  4  5  1  0
  5  6  1  0
  6  7  1  0
  7  8  1  0
  8  9  1  0
  9 10  1  0
 10 11  1  0
 11 12  2  0
 11 13  1  0
 13 14  1  0
 14 15  2  0
 15 16  1  0
 16 17  2  0
 17 18  1  0
 14 19  1  0
 18 19  2  0
  1 20  1  0
  3 21  1  0
  5 22  1  0
  5 23  1  0
  6 24  1  0
  6 25  1  0
  7 26  1  0
  7 27  1  0
  8 28  1  0
  8 29  1  0
  9 30  1  0
  9 31  1  0
 10 32  1  0
 10 33  1  0
 13 34  1  0
 15 35  1  0
 16 36  1  0
 17 37  1  0
 18 38  1  0
 19 39  1  0
M  END
$$$$
