PDB_DB01137_92
     RDKit          3D

 46 49  0  0  0  0  0  0  0  0999 V2000
  142.1820  -18.1750   63.8610 C   0  0  0  0  0  0  0  0  0  0  0  0
  136.0300  -17.9330   59.6430 F   0  0  0  0  0  0  0  0  0  0  0  0
  134.9400  -22.3870   57.2390 N   0  0  0  0  0  0  0  0  0  0  0  0
  143.0970  -18.9910   64.1380 O   0  0  0  0  0  0  0  0  0  0  0  0
  135.1030  -20.9380   59.2030 C   0  0  0  0  0  0  0  0  0  0  0  0
  136.4630  -20.5790   58.8100 N   0  0  0  0  0  0  0  0  0  0  0  0
  138.6560  -21.8210   59.8410 O   0  0  0  0  0  0  0  0  0  0  0  0
  136.7630  -20.7220   57.3820 C   0  0  0  0  0  0  0  0  0  0  0  0
  140.4130  -20.5590   61.6170 N   0  0  0  0  0  0  0  0  0  0  0  0
  139.7770  -16.6600   62.8120 O   0  0  0  0  0  0  0  0  0  0  0  0
  140.6600  -21.9620   61.2130 C   0  0  2  0  0  0  0  0  0  0  0  0
  142.1280  -16.9850   64.3220 O   0  0  0  0  0  0  0  0  0  0  0  0
  137.3150  -19.9090   59.7090 C   0  0  0  0  0  0  0  0  0  0  0  0
  139.3080  -19.8790   61.1270 C   0  0  0  0  0  0  0  0  0  0  0  0
  138.4310  -20.5420   60.2460 C   0  0  0  0  0  0  0  0  0  0  0  0
  134.7400  -22.3030   58.6750 C   0  0  0  0  0  0  0  0  0  0  0  0
  136.3320  -22.1060   56.9180 C   0  0  0  0  0  0  0  0  0  0  0  0
  139.3560  -22.6030   60.8190 C   0  0  0  0  0  0  0  0  0  0  0  0
  139.0790  -18.5550   61.5230 C   0  0  0  0  0  0  0  0  0  0  0  0
  137.1250  -18.5780   60.1350 C   0  0  0  0  0  0  0  0  0  0  0  0
  141.2440  -19.9380   62.4660 C   0  0  0  0  0  0  0  0  0  0  0  0
  137.9430  -17.9000   61.0020 C   0  0  0  0  0  0  0  0  0  0  0  0
  141.2210  -22.7720   62.3690 C   0  0  0  0  0  0  0  0  0  0  0  0
  139.9980  -17.8600   62.4630 C   0  0  0  0  0  0  0  0  0  0  0  0
  134.5840  -23.7230   56.7890 C   0  0  0  0  0  0  0  0  0  0  0  0
  141.1120  -18.6470   62.9180 C   0  0  0  0  0  0  0  0  0  0  0  0
  143.0834  -19.9010   63.7484 H   0  0  0  0  0  0  0  0  0  0  0  0
  135.0341  -20.9451   60.3008 H   0  0  0  0  0  0  0  0  0  0  0  0
  134.4058  -20.1985   58.7823 H   0  0  0  0  0  0  0  0  0  0  0  0
  136.2165  -19.9559   56.8124 H   0  0  0  0  0  0  0  0  0  0  0  0
  137.8430  -20.5955   57.2160 H   0  0  0  0  0  0  0  0  0  0  0  0
  141.3769  -21.9495   60.3788 H   0  0  0  0  0  0  0  0  0  0  0  0
  133.6826  -22.5045   58.9013 H   0  0  0  0  0  0  0  0  0  0  0  0
  135.3916  -23.0455   59.1589 H   0  0  0  0  0  0  0  0  0  0  0  0
  136.9672  -22.8577   57.4094 H   0  0  0  0  0  0  0  0  0  0  0  0
  136.4395  -22.1431   55.8239 H   0  0  0  0  0  0  0  0  0  0  0  0
  138.7238  -22.7046   61.7135 H   0  0  0  0  0  0  0  0  0  0  0  0
  139.5760  -23.5868   60.3788 H   0  0  0  0  0  0  0  0  0  0  0  0
  142.1074  -20.5123   62.8331 H   0  0  0  0  0  0  0  0  0  0  0  0
  137.7171  -16.8618   61.2868 H   0  0  0  0  0  0  0  0  0  0  0  0
  140.9070  -22.3187   63.3208 H   0  0  0  0  0  0  0  0  0  0  0  0
  140.8428  -23.8033   62.3117 H   0  0  0  0  0  0  0  0  0  0  0  0
  142.3195  -22.7806   62.3117 H   0  0  0  0  0  0  0  0  0  0  0  0
  134.4116  -24.3701   57.6617 H   0  0  0  0  0  0  0  0  0  0  0  0
  133.6677  -23.6736   56.1824 H   0  0  0  0  0  0  0  0  0  0  0  0
  135.4034  -24.1361   56.1824 H   0  0  0  0  0  0  0  0  0  0  0  0
  1  4  1  0
  5  6  1  0
  6  8  1  0
  9 11  1  0
  1 12  2  0
  6 13  1  0
  9 14  1  0
  7 15  1  0
 13 15  1  0
 14 15  2  0
  3 16  1  0
  5 16  1  0
  3 17  1  0
  8 17  1  0
  7 18  1  0
 11 18  1  0
 14 19  1  0
  2 20  1  0
 13 20  2  0
  9 21  1  0
 19 22  2  0
 20 22  1  0
 11 23  1  0
 10 24  2  0
 19 24  1  0
  3 25  1  0
  1 26  1  0
 21 26  2  0
 24 26  1  0
  4 27  1  0
  5 28  1  0
  5 29  1  0
  8 30  1  0
  8 31  1  0
 11 32  1  6
 16 33  1  0
 16 34  1  0
 17 35  1  0
 17 36  1  0
 18 37  1  0
 18 38  1  0
 21 39  1  0
 22 40  1  0
 23 41  1  0
 23 42  1  0
 23 43  1  0
 25 44  1  0
 25 45  1  0
 25 46  1  0
M  END
$$$$
