PDB_DB00703_96
     RDKit          3D

 22 22  0  0  0  0  0  0  0  0999 V2000
   33.0390    8.4230   18.1770 N   0  0  0  0  0  0  0  0  0  0  0  0
   33.2790    9.6110   19.2490 S   0  0  0  0  0  0  0  0  0  0  0  0
   32.5000    9.3860   20.4190 O   0  0  0  0  0  0  0  0  0  0  0  0
   32.9320   10.8930   18.7010 O   0  0  0  0  0  0  0  0  0  0  0  0
   34.8930    9.5830   19.6210 C   0  0  0  0  0  0  0  0  0  0  0  0
   35.9970   10.8700   19.1610 S   0  0  0  0  0  0  0  0  0  0  0  0
   37.1820    9.8770   19.9700 C   0  0  0  0  0  0  0  0  0  0  0  0
   36.7490    8.7370   20.4970 N   0  0  0  0  0  0  0  0  0  0  0  0
   37.4500    7.6680   21.2330 C   0  0  0  0  0  0  0  0  0  0  0  0
   35.3790    8.5160   20.3030 N   0  0  0  0  0  0  0  0  0  0  0  0
   38.4970   10.2050   20.0710 N   0  0  0  0  0  0  0  0  0  0  0  0
   38.9350   11.4300   20.3540 C   0  0  0  0  0  0  0  0  0  0  0  0
   38.3300   12.4440   20.0340 O   0  0  0  0  0  0  0  0  0  0  0  0
   40.2470   11.4760   21.0840 C   0  0  0  0  0  0  0  0  0  0  0  0
   32.8607    7.5403   18.6769 H   0  0  0  0  0  0  0  0  0  0  0  0
   32.2274    8.6528   17.5858 H   0  0  0  0  0  0  0  0  0  0  0  0
   37.3405    7.8350   22.3147 H   0  0  0  0  0  0  0  0  0  0  0  0
   37.0151    6.6934   20.9666 H   0  0  0  0  0  0  0  0  0  0  0  0
   38.5172    7.6784   20.9666 H   0  0  0  0  0  0  0  0  0  0  0  0
   40.0636   11.4696   22.1686 H   0  0  0  0  0  0  0  0  0  0  0  0
   40.8506   10.5985   20.8090 H   0  0  0  0  0  0  0  0  0  0  0  0
   40.7876   12.3937   20.8090 H   0  0  0  0  0  0  0  0  0  0  0  0
  1  2  1  0
  2  3  2  0
  2  4  2  0
  2  5  1  0
  5  6  1  0
  6  7  1  0
  7  8  1  0
  8  9  1  0
  5 10  2  0
  8 10  1  0
  7 11  2  0
 11 12  1  0
 12 13  2  0
 12 14  1  0
  1 15  1  0
  1 16  1  0
  9 17  1  0
  9 18  1  0
  9 19  1  0
 14 20  1  0
 14 21  1  0
 14 22  1  0
M  END
$$$$
