PDB_DB00184_98
     RDKit          3D

 26 27  0  0  0  0  0  0  0  0999 V2000
   77.4190   17.9370  -27.9770 N   0  0  0  0  0  0  0  0  0  0  0  0
   76.4240   18.5680  -27.3050 C   0  0  0  0  0  0  0  0  0  0  0  0
   76.5730   19.8390  -26.7220 C   0  0  0  0  0  0  0  0  0  0  0  0
   77.8200   20.4490  -26.8470 C   0  0  0  0  0  0  0  0  0  0  0  0
   78.8620   19.8180  -27.5300 C   0  0  0  0  0  0  0  0  0  0  0  0
   78.6210   18.5560  -28.0790 C   0  0  0  0  0  0  0  0  0  0  0  0
   74.1720   20.3480  -26.8140 N   0  0  0  0  0  0  0  0  0  0  0  0
   75.4330   20.4930  -25.9930 C   0  0  1  0  0  0  0  0  0  0  0  0
   74.9940   19.8630  -24.7110 C   0  0  0  0  0  0  0  0  0  0  0  0
   73.5390   20.2010  -24.5070 C   0  0  0  0  0  0  0  0  0  0  0  0
   72.9940   20.3410  -25.9000 C   0  0  0  0  0  0  0  0  0  0  0  0
   74.1520   21.6320  -27.4960 C   0  0  0  0  0  0  0  0  0  0  0  0
   75.4526   18.0605  -27.2114 H   0  0  0  0  0  0  0  0  0  0  0  0
   77.9857   21.4410  -26.4016 H   0  0  0  0  0  0  0  0  0  0  0  0
   79.8449   20.3010  -27.6329 H   0  0  0  0  0  0  0  0  0  0  0  0
   79.4361   18.0461  -28.6134 H   0  0  0  0  0  0  0  0  0  0  0  0
   75.8253   21.5046  -25.8122 H   0  0  0  0  0  0  0  0  0  0  0  0
   75.1205   18.7718  -24.7676 H   0  0  0  0  0  0  0  0  0  0  0  0
   75.5975   20.2386  -23.8715 H   0  0  0  0  0  0  0  0  0  0  0  0
   73.0233   19.3942  -23.9656 H   0  0  0  0  0  0  0  0  0  0  0  0
   73.3984   21.1116  -23.9062 H   0  0  0  0  0  0  0  0  0  0  0  0
   72.4323   21.2819  -25.9960 H   0  0  0  0  0  0  0  0  0  0  0  0
   72.3052   19.5186  -26.1433 H   0  0  0  0  0  0  0  0  0  0  0  0
   74.1394   22.4422  -26.7520 H   0  0  0  0  0  0  0  0  0  0  0  0
   75.0488   21.7266  -28.1260 H   0  0  0  0  0  0  0  0  0  0  0  0
   73.2527   21.6986  -28.1260 H   0  0  0  0  0  0  0  0  0  0  0  0
  1  2  2  0
  2  3  1  0
  3  4  2  0
  4  5  1  0
  1  6  1  0
  5  6  2  0
  3  8  1  0
  7  8  1  0
  8  9  1  0
  9 10  1  0
  7 11  1  0
 10 11  1  0
  7 12  1  0
  2 13  1  0
  4 14  1  0
  5 15  1  0
  6 16  1  0
  8 17  1  1
  9 18  1  0
  9 19  1  0
 10 20  1  0
 10 21  1  0
 11 22  1  0
 11 23  1  0
 12 24  1  0
 12 25  1  0
 12 26  1  0
M  END
$$$$
