PDB_DB01409_98
     RDKit          3D

 48 52  0  0  0  0  0  0  0  0999 V2000
   19.3220   87.7410   56.6240 C   0  0  0  0  0  0  0  0  0  0  0  0
   19.0130   88.3530   57.6430 O   0  0  0  0  0  0  0  0  0  0  0  0
   21.0890   86.1530   55.8680 C   0  0  0  0  0  0  0  0  0  0  0  0
   21.0870   88.4860   55.0740 C   0  0  0  0  0  0  0  0  0  0  0  0
   20.2340   85.1830   55.3810 C   0  0  0  0  0  0  0  0  0  0  0  0
   20.7270   83.9410   55.0970 C   0  0  0  0  0  0  0  0  0  0  0  0
   22.0610   83.6950   55.2930 C   0  0  0  0  0  0  0  0  0  0  0  0
   21.0430   88.1910   53.7270 C   0  0  0  0  0  0  0  0  0  0  0  0
   21.3550   89.1660   52.8250 C   0  0  0  0  0  0  0  0  0  0  0  0
   21.7020   90.4150   53.2850 C   0  0  0  0  0  0  0  0  0  0  0  0
   16.9570   88.2820   51.7820 O   0  0  0  0  0  0  0  0  0  0  0  0
   18.4230   87.7410   55.5420 O   0  0  0  0  0  0  0  0  0  0  0  0
   21.5570   87.9530   57.3270 O   0  0  0  0  0  0  0  0  0  0  0  0
   22.6390   85.2730   55.9030 S   0  0  0  0  0  0  0  0  0  0  0  0
   21.5810   90.1980   55.0580 S   0  0  0  0  0  0  0  0  0  0  0  0
   13.9090   87.4310   54.6280 C   0  0  0  0  0  0  0  0  0  0  0  0
   15.9780   86.7340   53.6040 C   0  0  2  0  0  0  0  0  0  0  0  0
   16.5950   86.3460   54.9270 C   0  0  0  0  0  0  0  0  0  0  0  0
   17.0360   87.5740   55.7240 C   0  0  2  0  0  0  0  0  0  0  0  0
   16.3160   88.8790   55.3710 C   0  0  0  0  0  0  0  0  0  0  0  0
   15.7500   88.8380   53.9750 C   0  0  1  0  0  0  0  0  0  0  0  0
   16.9740   88.7850   53.1000 C   0  0  1  0  0  0  0  0  0  0  0  0
   17.1190   87.3350   52.8210 C   0  0  2  0  0  0  0  0  0  0  0  0
   14.1870   87.8460   52.4450 C   0  0  0  0  0  0  0  0  0  0  0  0
   20.7840   87.5840   56.2440 C   0  0  0  0  0  0  0  0  0  0  0  0
   14.9610   87.7090   53.6780 N   0  0  0  0  0  0  0  0  0  0  0  0
   19.1688   85.4082   55.2238 H   0  0  0  0  0  0  0  0  0  0  0  0
   20.0634   83.1504   54.7168 H   0  0  0  0  0  0  0  0  0  0  0  0
   22.6281   82.7684   55.1201 H   0  0  0  0  0  0  0  0  0  0  0  0
   20.7605   87.1843   53.3852 H   0  0  0  0  0  0  0  0  0  0  0  0
   21.3294   88.9563   51.7455 H   0  0  0  0  0  0  0  0  0  0  0  0
   21.9809   91.3123   52.7132 H   0  0  0  0  0  0  0  0  0  0  0  0
   21.0811   87.7258   58.1648 H   0  0  0  0  0  0  0  0  0  0  0  0
   14.3014   87.5347   55.6504 H   0  0  0  0  0  0  0  0  0  0  0  0
   13.0828   88.1416   54.4785 H   0  0  0  0  0  0  0  0  0  0  0  0
   13.5417   86.4050   54.4785 H   0  0  0  0  0  0  0  0  0  0  0  0
   15.5032   85.8435   53.1662 H   0  0  0  0  0  0  0  0  0  0  0  0
   15.8539   85.7855   55.5158 H   0  0  0  0  0  0  0  0  0  0  0  0
   17.4835   85.7298   54.7248 H   0  0  0  0  0  0  0  0  0  0  0  0
   16.7672   87.3749   56.7719 H   0  0  0  0  0  0  0  0  0  0  0  0
   15.4946   89.0384   56.0851 H   0  0  0  0  0  0  0  0  0  0  0  0
   17.0457   89.7005   55.4233 H   0  0  0  0  0  0  0  0  0  0  0  0
   15.0809   89.6993   53.8319 H   0  0  0  0  0  0  0  0  0  0  0  0
   17.4792   89.6870   53.4758 H   0  0  0  0  0  0  0  0  0  0  0  0
   17.7932   86.4661   52.8399 H   0  0  0  0  0  0  0  0  0  0  0  0
   13.1318   88.0328   52.6933 H   0  0  0  0  0  0  0  0  0  0  0  0
   14.5800   88.6885   51.8571 H   0  0  0  0  0  0  0  0  0  0  0  0
   14.2669   86.9197   51.8571 H   0  0  0  0  0  0  0  0  0  0  0  0
  1  2  2  0
  3  5  2  0
  5  6  1  0
  6  7  2  0
  4  8  2  0
  8  9  1  0
  9 10  2  0
  1 12  1  0
  3 14  1  0
  7 14  1  0
  4 15  1  0
 10 15  1  0
 17 18  1  0
 12 19  1  0
 18 19  1  0
 19 20  1  0
 20 21  1  0
 11 22  1  0
 21 22  1  0
 11 23  1  0
 17 23  1  0
 22 23  1  0
  1 25  1  0
  3 25  1  0
  4 25  1  0
 13 25  1  0
 16 26  1  0
 17 26  1  0
 21 26  1  0
 24 26  1  0
  5 27  1  0
  6 28  1  0
  7 29  1  0
  8 30  1  0
  9 31  1  0
 10 32  1  0
 13 33  1  0
 16 34  1  0
 16 35  1  0
 16 36  1  0
 17 37  1  6
 18 38  1  0
 18 39  1  0
 19 40  1  1
 20 41  1  0
 20 42  1  0
 21 43  1  6
 22 44  1  6
 23 45  1  6
 24 46  1  0
 24 47  1  0
 24 48  1  0
M  CHG  1  26   1
M  END
$$$$
