PDB_DB01004_98
     RDKit          3D

 31 32  0  0  0  0  0  0  0  0999 V2000
   24.6380   96.7010   45.2310 N   0  0  0  0  0  0  0  0  0  0  0  0
   23.6290   95.7040   45.2200 C   0  0  0  0  0  0  0  0  0  0  0  0
   22.0880   97.2730   44.9740 C   0  0  0  0  0  0  0  0  0  0  0  0
   20.9760   99.0980   44.7070 C   0  0  0  0  0  0  0  0  0  0  0  0
   17.0170   96.5820   46.0130 C   0  0  0  0  0  0  0  0  0  0  0  0
   17.6660   95.4480   45.3820 O   0  0  0  0  0  0  0  0  0  0  0  0
   17.4010   99.2220   46.0760 C   0  0  0  0  0  0  0  0  0  0  0  0
   18.0210  100.2480   45.2350 O   0  0  0  0  0  0  0  0  0  0  0  0
   17.9830   97.7380   45.9320 C   0  0  0  0  0  0  0  0  0  0  0  0
   18.6490   97.7370   44.6890 O   0  0  0  0  0  0  0  0  0  0  0  0
   19.6970   96.8180   44.8160 C   0  0  0  0  0  0  0  0  0  0  0  0
   20.8420   97.7210   44.8270 N   0  0  0  0  0  0  0  0  0  0  0  0
   22.3420   95.9540   45.0740 N   0  0  0  0  0  0  0  0  0  0  0  0
   23.8800   94.4090   45.3640 N   0  0  0  0  0  0  0  0  0  0  0  0
   24.3920   98.1370   45.0880 C   0  0  0  0  0  0  0  0  0  0  0  0
   25.3030   99.0200   45.0990 O   0  0  0  0  0  0  0  0  0  0  0  0
   22.9480   98.3520   44.9460 C   0  0  0  0  0  0  0  0  0  0  0  0
   22.2080   99.5590   44.7620 N   0  0  0  0  0  0  0  0  0  0  0  0
   25.6137   96.3924   45.3480 H   0  0  0  0  0  0  0  0  0  0  0  0
   20.1084   99.7611   44.5745 H   0  0  0  0  0  0  0  0  0  0  0  0
   16.0857   96.8289   45.4822 H   0  0  0  0  0  0  0  0  0  0  0  0
   16.7577   96.3570   47.0580 H   0  0  0  0  0  0  0  0  0  0  0  0
   18.0152   94.8378   46.0790 H   0  0  0  0  0  0  0  0  0  0  0  0
   17.5240   99.5296   47.1249 H   0  0  0  0  0  0  0  0  0  0  0  0
   16.3556   99.1603   45.7395 H   0  0  0  0  0  0  0  0  0  0  0  0
   18.4380  100.9380   45.8096 H   0  0  0  0  0  0  0  0  0  0  0  0
   18.6163   97.5471   46.8109 H   0  0  0  0  0  0  0  0  0  0  0  0
   19.6231   96.2444   45.7517 H   0  0  0  0  0  0  0  0  0  0  0  0
   19.7285   96.0472   44.0319 H   0  0  0  0  0  0  0  0  0  0  0  0
   23.1061   93.7295   45.3478 H   0  0  0  0  0  0  0  0  0  0  0  0
   24.8487   94.0833   45.4920 H   0  0  0  0  0  0  0  0  0  0  0  0
  1  2  1  0
  5  6  1  0
  7  8  1  0
  5  9  1  0
  7  9  1  0
  9 10  1  0
 10 11  1  0
  3 12  1  0
  4 12  1  0
 11 12  1  0
  2 13  2  0
  3 13  1  0
  2 14  1  0
  1 15  1  0
 15 16  2  0
  3 17  2  0
 15 17  1  0
  4 18  2  0
 17 18  1  0
  1 19  1  0
  4 20  1  0
  5 21  1  0
  5 22  1  0
  6 23  1  0
  7 24  1  0
  7 25  1  0
  8 26  1  0
  9 27  1  0
 11 28  1  0
 11 29  1  0
 14 30  1  0
 14 31  1  0
M  END
$$$$
