PDB_DB00586_96
     RDKit          3D

 30 31  0  0  0  0  0  0  0  0999 V2000
   14.0290   53.8040   71.2840 C   0  0  0  0  0  0  0  0  0  0  0  0
   13.9660   52.9240   70.1750 C   0  0  0  0  0  0  0  0  0  0  0  0
   12.4260   52.1920   69.8900 Cl  0  0  0  0  0  0  0  0  0  0  0  0
   15.1200   52.5550   69.4780 C   0  0  0  0  0  0  0  0  0  0  0  0
   16.3680   53.1030   69.9530 C   0  0  0  0  0  0  0  0  0  0  0  0
   17.8890   52.7400   69.2050 Cl  0  0  0  0  0  0  0  0  0  0  0  0
   16.4190   53.9650   71.0570 C   0  0  0  0  0  0  0  0  0  0  0  0
   15.2480   54.3170   71.7220 C   0  0  0  0  0  0  0  0  0  0  0  0
   15.1820   51.6810   68.3310 N   0  0  0  0  0  0  0  0  0  0  0  0
   14.7990   49.6030   67.0960 C   0  0  0  0  0  0  0  0  0  0  0  0
   14.7760   50.3350   68.2880 C   0  0  0  0  0  0  0  0  0  0  0  0
   14.4260   49.6950   69.4890 C   0  0  0  0  0  0  0  0  0  0  0  0
   14.0730   48.3300   69.5060 C   0  0  0  0  0  0  0  0  0  0  0  0
   14.0660   47.6000   68.3230 C   0  0  0  0  0  0  0  0  0  0  0  0
   14.4200   48.2320   67.1300 C   0  0  0  0  0  0  0  0  0  0  0  0
   15.3120   50.1770   65.8070 C   0  0  0  0  0  0  0  0  0  0  0  0
   16.7940   50.2900   65.7620 C   0  0  0  0  0  0  0  0  0  0  0  0
   17.5110   49.5040   65.1590 O   0  0  0  0  0  0  0  0  0  0  0  0
   17.2880   51.3370   66.4560 O   0  0  0  0  0  0  0  0  0  0  0  0
   13.1028   54.0859   71.8061 H   0  0  0  0  0  0  0  0  0  0  0  0
   17.3857   54.3638   71.3983 H   0  0  0  0  0  0  0  0  0  0  0  0
   15.2848   54.9954   72.5872 H   0  0  0  0  0  0  0  0  0  0  0  0
   15.5598   52.0814   67.4604 H   0  0  0  0  0  0  0  0  0  0  0  0
   14.4274   50.2667   70.4288 H   0  0  0  0  0  0  0  0  0  0  0  0
   13.8033   47.8431   70.4548 H   0  0  0  0  0  0  0  0  0  0  0  0
   13.7847   46.5366   68.3271 H   0  0  0  0  0  0  0  0  0  0  0  0
   14.4056   47.6560   66.1930 H   0  0  0  0  0  0  0  0  0  0  0  0
   14.9862   49.5273   64.9813 H   0  0  0  0  0  0  0  0  0  0  0  0
   14.9048   51.1951   65.7188 H   0  0  0  0  0  0  0  0  0  0  0  0
   18.4933   49.6272   65.1626 H   0  0  0  0  0  0  0  0  0  0  0  0
  1  2  2  0
  2  3  1  0
  2  4  1  0
  4  5  2  0
  5  6  1  0
  5  7  1  0
  1  8  1  0
  7  8  2  0
  4  9  1  0
  9 11  1  0
 10 11  2  0
 11 12  1  0
 12 13  2  0
 13 14  1  0
 10 15  1  0
 14 15  2  0
 10 16  1  0
 16 17  1  0
 17 18  1  0
 17 19  2  0
  1 20  1  0
  7 21  1  0
  8 22  1  0
  9 23  1  0
 12 24  1  0
 13 25  1  0
 14 26  1  0
 15 27  1  0
 16 28  1  0
 16 29  1  0
 18 30  1  0
M  END
$$$$
