PDB_DB00396_91
     RDKit          3D

 53 56  0  0  0  0  0  0  0  0999 V2000
  123.5000  -20.1740   10.9690 C   0  0  0  0  0  0  0  0  0  0  0  0
  123.0230  -18.8130   10.3600 C   0  0  0  0  0  0  0  0  0  0  0  0
  121.6740  -18.9040    9.6360 C   0  0  0  0  0  0  0  0  0  0  0  0
  121.4520  -18.0830    8.7240 O   0  0  0  0  0  0  0  0  0  0  0  0
  120.6710  -19.9190    9.9530 C   0  0  0  0  0  0  0  0  0  0  0  0
  120.8910  -20.9130   11.0240 C   0  0  0  0  0  0  0  0  0  0  0  0
  119.7240  -21.9670   11.3880 C   0  0  0  0  0  0  0  0  0  0  0  0
  120.2370  -23.4010   11.3310 C   0  0  0  0  0  0  0  0  0  0  0  0
  121.5540  -23.6230   12.2070 C   0  0  2  0  0  0  0  0  0  0  0  0
  122.7800  -22.6130   11.6960 C   0  0  1  0  0  0  0  0  0  0  0  0
  122.3370  -21.0780   11.7470 C   0  0  1  0  0  0  0  0  0  0  0  0
  124.2220  -22.8650   12.3860 C   0  0  0  0  0  0  0  0  0  0  0  0
  124.6020  -24.3210   12.3880 C   0  0  0  0  0  0  0  0  0  0  0  0
  123.4570  -25.2860   13.0740 C   0  0  1  0  0  0  0  0  0  0  0  0
  122.0990  -25.0800   12.1790 C   0  0  1  0  0  0  0  0  0  0  0  0
  121.1440  -26.2620   12.4720 C   0  0  0  0  0  0  0  0  0  0  0  0
  122.1740  -27.3760   12.7940 C   0  0  0  0  0  0  0  0  0  0  0  0
  123.6360  -26.7460   12.7690 C   0  0  2  0  0  0  0  0  0  0  0  0
  123.3070  -24.9540   14.6890 C   0  0  0  0  0  0  0  0  0  0  0  0
  122.1340  -20.5770   13.2670 C   0  0  0  0  0  0  0  0  0  0  0  0
  124.6850  -27.5110   13.5270 C   0  0  0  0  0  0  0  0  0  0  0  0
  124.3230  -28.1370   14.5710 O   0  0  0  0  0  0  0  0  0  0  0  0
  126.1330  -27.5580   13.0380 C   0  0  0  0  0  0  0  0  0  0  0  0
  123.9072  -20.7843   10.1494 H   0  0  0  0  0  0  0  0  0  0  0  0
  124.2347  -19.9091   11.7436 H   0  0  0  0  0  0  0  0  0  0  0  0
  122.9315  -18.0802   11.1752 H   0  0  0  0  0  0  0  0  0  0  0  0
  123.7716  -18.5144    9.6114 H   0  0  0  0  0  0  0  0  0  0  0  0
  119.7314  -19.9434    9.3815 H   0  0  0  0  0  0  0  0  0  0  0  0
  119.3560  -21.7580   12.4033 H   0  0  0  0  0  0  0  0  0  0  0  0
  118.9146  -21.8577   10.6511 H   0  0  0  0  0  0  0  0  0  0  0  0
  119.4490  -24.0712   11.7051 H   0  0  0  0  0  0  0  0  0  0  0  0
  120.4952  -23.6188   10.2841 H   0  0  0  0  0  0  0  0  0  0  0  0
  121.2462  -23.3959   13.2383 H   0  0  0  0  0  0  0  0  0  0  0  0
  122.9463  -22.8873   10.6438 H   0  0  0  0  0  0  0  0  0  0  0  0
  124.9848  -22.3001   11.8300 H   0  0  0  0  0  0  0  0  0  0  0  0
  124.1603  -22.5297   13.4318 H   0  0  0  0  0  0  0  0  0  0  0  0
  124.7551  -24.6444   11.3478 H   0  0  0  0  0  0  0  0  0  0  0  0
  125.5180  -24.4204   12.9889 H   0  0  0  0  0  0  0  0  0  0  0  0
  122.2983  -25.1474   11.0993 H   0  0  0  0  0  0  0  0  0  0  0  0
  120.4888  -26.0529   13.3304 H   0  0  0  0  0  0  0  0  0  0  0  0
  120.4449  -26.5023   11.6575 H   0  0  0  0  0  0  0  0  0  0  0  0
  121.9681  -27.7929   13.7909 H   0  0  0  0  0  0  0  0  0  0  0  0
  122.1007  -28.1800   12.0469 H   0  0  0  0  0  0  0  0  0  0  0  0
  124.1021  -26.8384   11.7769 H   0  0  0  0  0  0  0  0  0  0  0  0
  123.6903  -25.8024   15.2749 H   0  0  0  0  0  0  0  0  0  0  0  0
  123.8840  -24.0497   14.9326 H   0  0  0  0  0  0  0  0  0  0  0  0
  122.2470  -24.7893   14.9326 H   0  0  0  0  0  0  0  0  0  0  0  0
  122.4548  -21.3688   13.9600 H   0  0  0  0  0  0  0  0  0  0  0  0
  122.7368  -19.6730   13.4387 H   0  0  0  0  0  0  0  0  0  0  0  0
  121.0720  -20.3476   13.4387 H   0  0  0  0  0  0  0  0  0  0  0  0
  126.8117  -27.5800   13.9034 H   0  0  0  0  0  0  0  0  0  0  0  0
  126.2853  -28.4616   12.4294 H   0  0  0  0  0  0  0  0  0  0  0  0
  126.3436  -26.6662   12.4294 H   0  0  0  0  0  0  0  0  0  0  0  0
  1  2  1  0
  2  3  1  0
  3  4  2  0
  3  5  1  0
  5  6  2  0
  6  7  1  0
  7  8  1  0
  8  9  1  0
  9 10  1  0
  1 11  1  0
  6 11  1  0
 10 11  1  0
 10 12  1  0
 12 13  1  0
 13 14  1  0
  9 15  1  0
 14 15  1  0
 15 16  1  0
 16 17  1  0
 14 18  1  0
 17 18  1  0
 14 19  1  1
 11 20  1  1
 18 21  1  0
 21 22  2  0
 21 23  1  0
  1 24  1  0
  1 25  1  0
  2 26  1  0
  2 27  1  0
  5 28  1  0
  7 29  1  0
  7 30  1  0
  8 31  1  0
  8 32  1  0
  9 33  1  1
 10 34  1  6
 12 35  1  0
 12 36  1  0
 13 37  1  0
 13 38  1  0
 15 39  1  6
 16 40  1  0
 16 41  1  0
 17 42  1  0
 17 43  1  0
 18 44  1  6
 19 45  1  0
 19 46  1  0
 19 47  1  0
 20 48  1  0
 20 49  1  0
 20 50  1  0
 23 51  1  0
 23 52  1  0
 23 53  1  0
M  END
$$$$
