PDB_DB00759_98
     RDKit          3D

 56 59  0  0  0  0  0  0  0  0999 V2000
  -76.9940   99.1860   76.3880 C   0  0  0  0  0  0  0  0  0  0  0  0
  -76.2230   98.3770   75.9050 O   0  0  0  0  0  0  0  0  0  0  0  0
  -76.7980  100.6190   76.3610 C   0  0  0  0  0  0  0  0  0  0  0  0
  -76.2680  101.2930   75.1720 C   0  0  0  0  0  0  0  0  0  0  0  0
  -76.9790  102.0840   74.5330 O   0  0  0  0  0  0  0  0  0  0  0  0
  -75.0210  101.0280   74.8040 N   0  0  0  0  0  0  0  0  0  0  0  0
  -77.1400  101.3290   77.5170 C   0  0  0  0  0  0  0  0  0  0  0  0
  -77.0210  102.6640   77.5080 O   0  0  0  0  0  0  0  0  0  0  0  0
  -77.6380  100.6330   78.7780 C   0  0  1  0  0  0  0  0  0  0  0  0
  -78.6080  101.5390   79.4190 N   0  0  0  0  0  0  0  0  0  0  0  0
  -80.0020  101.4900   78.9600 C   0  0  0  0  0  0  0  0  0  0  0  0
  -78.5370  101.5970   80.8800 C   0  0  0  0  0  0  0  0  0  0  0  0
  -78.1530   99.1740   78.6440 C   0  0  2  0  0  0  0  0  0  0  0  0
  -77.1460   98.3000   79.4050 C   0  0  0  0  0  0  0  0  0  0  0  0
  -77.6500   96.8510   79.5200 C   0  0  2  0  0  0  0  0  0  0  0  0
  -76.6570   95.8490   80.1450 C   0  0  2  0  0  0  0  0  0  0  0  0
  -76.0870   96.3290   81.4780 C   0  0  0  0  0  0  0  0  0  0  0  0
  -75.5480   95.7330   79.2420 O   0  0  0  0  0  0  0  0  0  0  0  0
  -77.3170   94.4690   80.2560 C   0  0  0  0  0  0  0  0  0  0  0  0
  -77.1250   93.6440   81.3610 C   0  0  0  0  0  0  0  0  0  0  0  0
  -77.8440   92.4680   81.5010 C   0  0  0  0  0  0  0  0  0  0  0  0
  -78.7690   92.0920   80.5410 C   0  0  0  0  0  0  0  0  0  0  0  0
  -78.9610   92.8800   79.4080 C   0  0  0  0  0  0  0  0  0  0  0  0
  -79.8590   92.4620   78.4740 O   0  0  0  0  0  0  0  0  0  0  0  0
  -78.2230   94.0790   79.2370 C   0  0  0  0  0  0  0  0  0  0  0  0
  -78.3900   94.9040   78.0330 C   0  0  0  0  0  0  0  0  0  0  0  0
  -78.6870   94.3990   76.9490 O   0  0  0  0  0  0  0  0  0  0  0  0
  -78.1260   96.3590   78.1660 C   0  0  0  0  0  0  0  0  0  0  0  0
  -78.3730   97.1950   77.1200 C   0  0  0  0  0  0  0  0  0  0  0  0
  -78.7680   96.7820   75.9200 O   0  0  0  0  0  0  0  0  0  0  0  0
  -78.2390   98.7120   77.1830 C   0  0  2  0  0  0  0  0  0  0  0  0
  -79.3810   99.2840   76.5610 O   0  0  0  0  0  0  0  0  0  0  0  0
  -74.6209  101.4862   73.9728 H   0  0  0  0  0  0  0  0  0  0  0  0
  -74.4531  100.3641   75.3495 H   0  0  0  0  0  0  0  0  0  0  0  0
  -77.2571  103.1875   78.3144 H   0  0  0  0  0  0  0  0  0  0  0  0
  -76.7577  100.4578   79.4139 H   0  0  0  0  0  0  0  0  0  0  0  0
  -80.6740  101.4664   79.8305 H   0  0  0  0  0  0  0  0  0  0  0  0
  -80.2196  102.3810   78.3528 H   0  0  0  0  0  0  0  0  0  0  0  0
  -80.1565  100.5859   78.3528 H   0  0  0  0  0  0  0  0  0  0  0  0
  -79.3208  100.9567   81.3109 H   0  0  0  0  0  0  0  0  0  0  0  0
  -77.5502  101.2434   81.2135 H   0  0  0  0  0  0  0  0  0  0  0  0
  -78.6866  102.6345   81.2135 H   0  0  0  0  0  0  0  0  0  0  0  0
  -79.1729   99.0983   79.0491 H   0  0  0  0  0  0  0  0  0  0  0  0
  -76.1864   98.3055   78.8672 H   0  0  0  0  0  0  0  0  0  0  0  0
  -77.0222   98.7095   80.4184 H   0  0  0  0  0  0  0  0  0  0  0  0
  -78.4855   96.8915   80.2343 H   0  0  0  0  0  0  0  0  0  0  0  0
  -76.6426   95.8611   82.3041 H   0  0  0  0  0  0  0  0  0  0  0  0
  -75.0254   96.0488   81.5450 H   0  0  0  0  0  0  0  0  0  0  0  0
  -76.1825   97.4228   81.5450 H   0  0  0  0  0  0  0  0  0  0  0  0
  -74.7087   95.6452   79.7597 H   0  0  0  0  0  0  0  0  0  0  0  0
  -76.3939   93.9292   82.1318 H   0  0  0  0  0  0  0  0  0  0  0  0
  -77.6791   91.8285   82.3807 H   0  0  0  0  0  0  0  0  0  0  0  0
  -79.3532   91.1694   80.6733 H   0  0  0  0  0  0  0  0  0  0  0  0
  -80.0144   93.0032   77.6597 H   0  0  0  0  0  0  0  0  0  0  0  0
  -78.9316   97.4404   75.1990 H   0  0  0  0  0  0  0  0  0  0  0  0
  -80.0117   99.5999   77.2557 H   0  0  0  0  0  0  0  0  0  0  0  0
  2  1  2  0
  3  1  1  0
  4  3  1  0
  5  4  2  0
  6  4  1  0
  7  3  2  0
  8  7  1  0
  9  7  1  0
 10  9  1  0
 11 10  1  0
 12 10  1  0
 13  9  1  0
 14 13  1  0
 15 14  1  0
 16 15  1  0
 17 16  1  0
 16 18  1  6
 19 16  1  0
 20 19  2  0
 21 20  1  0
 22 21  2  0
 23 22  1  0
 24 23  1  0
 25 23  2  0
 25 19  1  0
 26 25  1  0
 27 26  2  0
 28 26  1  0
 28 15  1  0
 29 28  2  0
 30 29  1  0
 31 29  1  0
 31 13  1  0
 31  1  1  0
 31 32  1  6
  6 33  1  0
  6 34  1  0
  8 35  1  0
  9 36  1  1
 11 37  1  0
 11 38  1  0
 11 39  1  0
 12 40  1  0
 12 41  1  0
 12 42  1  0
 13 43  1  1
 14 44  1  0
 14 45  1  0
 15 46  1  1
 17 47  1  0
 17 48  1  0
 17 49  1  0
 18 50  1  0
 20 51  1  0
 21 52  1  0
 22 53  1  0
 24 54  1  0
 30 55  1  0
 32 56  1  0
M  END
$$$$
