PDB_DB02546_93
     RDKit          3D

 39 39  0  0  0  0  0  0  0  0999 V2000
    1.6310  -45.5110   31.2350 O   0  0  0  0  0  0  0  0  0  0  0  0
    0.9550  -44.3740   28.8720 O   0  0  0  0  0  0  0  0  0  0  0  0
    0.8360  -44.3760   31.1100 N   0  0  0  0  0  0  0  0  0  0  0  0
    0.5500  -43.8810   29.9120 C   0  0  0  0  0  0  0  0  0  0  0  0
   -0.3200  -42.6480   29.8950 C   0  0  0  0  0  0  0  0  0  0  0  0
    0.5400  -41.3960   30.0110 C   0  0  0  0  0  0  0  0  0  0  0  0
   -0.3550  -40.1880   30.2580 C   0  0  0  0  0  0  0  0  0  0  0  0
    0.1990  -38.9180   29.6280 C   0  0  0  0  0  0  0  0  0  0  0  0
    1.4600  -38.4410   30.3310 C   0  0  0  0  0  0  0  0  0  0  0  0
    1.6870  -36.9590   30.0560 C   0  0  0  0  0  0  0  0  0  0  0  0
    1.8740  -36.7230   28.5750 C   0  0  0  0  0  0  0  0  0  0  0  0
    2.7470  -37.3370   27.9840 O   0  0  0  0  0  0  0  0  0  0  0  0
    1.0440  -35.8220   28.0360 N   0  0  0  0  0  0  0  0  0  0  0  0
    0.9980  -35.3970   26.6930 C   0  0  0  0  0  0  0  0  0  0  0  0
    1.8330  -35.9080   25.7020 C   0  0  0  0  0  0  0  0  0  0  0  0
    1.7430  -35.4460   24.3930 C   0  0  0  0  0  0  0  0  0  0  0  0
    0.8170  -34.4650   24.0630 C   0  0  0  0  0  0  0  0  0  0  0  0
   -0.0180  -33.9480   25.0450 C   0  0  0  0  0  0  0  0  0  0  0  0
    0.0740  -34.4130   26.3520 C   0  0  0  0  0  0  0  0  0  0  0  0
    1.7714  -45.7115   32.1943 H   0  0  0  0  0  0  0  0  0  0  0  0
    0.4663  -43.9160   31.9542 H   0  0  0  0  0  0  0  0  0  0  0  0
   -0.8848  -42.6148   28.9517 H   0  0  0  0  0  0  0  0  0  0  0  0
   -1.0144  -42.6868   30.7472 H   0  0  0  0  0  0  0  0  0  0  0  0
    1.2425  -41.5098   30.8498 H   0  0  0  0  0  0  0  0  0  0  0  0
    1.1044  -41.2504   29.0781 H   0  0  0  0  0  0  0  0  0  0  0  0
   -1.3480  -40.3905   29.8303 H   0  0  0  0  0  0  0  0  0  0  0  0
   -0.4098  -40.0274   31.3448 H   0  0  0  0  0  0  0  0  0  0  0  0
    0.4342  -39.1179   28.5722 H   0  0  0  0  0  0  0  0  0  0  0  0
   -0.5629  -38.1301   29.7217 H   0  0  0  0  0  0  0  0  0  0  0  0
    1.3533  -38.5974   31.4146 H   0  0  0  0  0  0  0  0  0  0  0  0
    2.3203  -39.0124   29.9522 H   0  0  0  0  0  0  0  0  0  0  0  0
    0.8156  -36.3871   30.4074 H   0  0  0  0  0  0  0  0  0  0  0  0
    2.5924  -36.6310   30.5877 H   0  0  0  0  0  0  0  0  0  0  0  0
    0.3614  -35.3902   28.6752 H   0  0  0  0  0  0  0  0  0  0  0  0
    2.5701  -36.6837   25.9568 H   0  0  0  0  0  0  0  0  0  0  0  0
    2.4062  -35.8582   23.6182 H   0  0  0  0  0  0  0  0  0  0  0  0
    0.7452  -34.0990   23.0282 H   0  0  0  0  0  0  0  0  0  0  0  0
   -0.7524  -33.1703   24.7886 H   0  0  0  0  0  0  0  0  0  0  0  0
   -0.5903  -33.9991   27.1249 H   0  0  0  0  0  0  0  0  0  0  0  0
  1  3  1  0
  3  4  1  0
  4  2  2  0
  4  5  1  0
  5  6  1  0
  6  7  1  0
  7  8  1  0
  8  9  1  0
  9 10  1  0
 10 11  1  0
 11 12  2  0
 11 13  1  0
 13 14  1  0
 14 15  2  0
 15 16  1  0
 16 17  2  0
 17 18  1  0
 14 19  1  0
 18 19  2  0
  1 20  1  0
  3 21  1  0
  5 22  1  0
  5 23  1  0
  6 24  1  0
  6 25  1  0
  7 26  1  0
  7 27  1  0
  8 28  1  0
  8 29  1  0
  9 30  1  0
  9 31  1  0
 10 32  1  0
 10 33  1  0
 13 34  1  0
 15 35  1  0
 16 36  1  0
 17 37  1  0
 18 38  1  0
 19 39  1  0
M  END
$$$$
