PDB_DB08881_98
     RDKit          3D

 51 54  0  0  0  0  0  0  0  0999 V2000
   60.5420    6.5770   47.0740 C   0  0  0  0  0  0  0  0  0  0  0  0
   59.8230   13.4890   42.0220 C   0  0  0  0  0  0  0  0  0  0  0  0
   59.6400   14.1820   44.3190 C   0  0  0  0  0  0  0  0  0  0  0  0
   60.2770   16.5910   44.0130 C   0  0  0  0  0  0  0  0  0  0  0  0
   60.0030   17.8900   43.6240 C   0  0  0  0  0  0  0  0  0  0  0  0
   58.7520   18.2080   43.1150 C   0  0  0  0  0  0  0  0  0  0  0  0
   58.0630   15.9240   43.3770 C   0  0  0  0  0  0  0  0  0  0  0  0
   60.2010    9.5080   44.1740 C   0  0  0  0  0  0  0  0  0  0  0  0
   60.3160    9.0440   42.8690 C   0  0  0  0  0  0  0  0  0  0  0  0
   60.2590    9.9220   41.8340 N   0  0  0  0  0  0  0  0  0  0  0  0
   60.0360   10.8240   44.4130 C   0  0  0  0  0  0  0  0  0  0  0  0
   59.9920   12.3720   41.2560 N   0  0  0  0  0  0  0  0  0  0  0  0
   59.8170   13.0420   43.3170 C   0  0  0  0  0  0  0  0  0  0  0  0
   59.9790   11.7010   43.3670 C   0  0  0  0  0  0  0  0  0  0  0  0
   60.0870   11.2660   42.0800 C   0  0  0  0  0  0  0  0  0  0  0  0
   60.2930    8.4850   45.1000 C   0  0  0  0  0  0  0  0  0  0  0  0
   59.3120   15.6070   43.8810 C   0  0  0  0  0  0  0  0  0  0  0  0
   57.7830   17.2240   42.9890 C   0  0  0  0  0  0  0  0  0  0  0  0
   56.8850   15.2930   43.1010 F   0  0  0  0  0  0  0  0  0  0  0  0
   61.5090   16.2780   44.5130 F   0  0  0  0  0  0  0  0  0  0  0  0
   61.0390   18.8990   43.7660 N   0  0  0  0  0  0  0  0  0  0  0  0
   60.8170   20.5050   43.2270 S   0  0  0  0  0  0  0  0  0  0  0  0
   61.9560   21.3410   43.6140 O   0  0  0  0  0  0  0  0  0  0  0  0
   59.7200   21.1580   43.9450 O   0  0  0  0  0  0  0  0  0  0  0  0
   60.5710   20.5570   41.4260 C   0  0  0  0  0  0  0  0  0  0  0  0
   61.8850   20.2080   40.7300 C   0  0  0  0  0  0  0  0  0  0  0  0
   61.7630   20.5080   39.2380 C   0  0  0  0  0  0  0  0  0  0  0  0
   60.7680    8.8390   46.3530 C   0  0  0  0  0  0  0  0  0  0  0  0
   60.8970    7.8870   47.3420 C   0  0  0  0  0  0  0  0  0  0  0  0
   60.0610    6.2160   45.8210 C   0  0  0  0  0  0  0  0  0  0  0  0
   59.9330    7.1750   44.8250 C   0  0  0  0  0  0  0  0  0  0  0  0
   60.7040    5.3430   48.3500 Cl  0  0  0  0  0  0  0  0  0  0  0  0
   59.7650   13.9500   45.4730 O   0  0  0  0  0  0  0  0  0  0  0  0
   59.7147   14.5268   41.6738 H   0  0  0  0  0  0  0  0  0  0  0  0
   58.5287   19.2414   42.8112 H   0  0  0  0  0  0  0  0  0  0  0  0
   60.4527    7.9699   42.6750 H   0  0  0  0  0  0  0  0  0  0  0  0
   59.9476   11.1906   45.4463 H   0  0  0  0  0  0  0  0  0  0  0  0
   60.0410   12.3557   40.2273 H   0  0  0  0  0  0  0  0  0  0  0  0
   56.7928   17.4756   42.5813 H   0  0  0  0  0  0  0  0  0  0  0  0
   61.9337   18.6383   44.2046 H   0  0  0  0  0  0  0  0  0  0  0  0
   59.7979   19.8291   41.1390 H   0  0  0  0  0  0  0  0  0  0  0  0
   60.2498   21.5652   41.1256 H   0  0  0  0  0  0  0  0  0  0  0  0
   62.6993   20.8096   41.1601 H   0  0  0  0  0  0  0  0  0  0  0  0
   62.1047   19.1398   40.8735 H   0  0  0  0  0  0  0  0  0  0  0  0
   61.3519   21.5189   39.0997 H   0  0  0  0  0  0  0  0  0  0  0  0
   62.7566   20.4490   38.7697 H   0  0  0  0  0  0  0  0  0  0  0  0
   61.0926   19.7723   38.7697 H   0  0  0  0  0  0  0  0  0  0  0  0
   61.0432    9.8838   46.5593 H   0  0  0  0  0  0  0  0  0  0  0  0
   61.2787    8.1665   48.3351 H   0  0  0  0  0  0  0  0  0  0  0  0
   59.7819    5.1714   45.6185 H   0  0  0  0  0  0  0  0  0  0  0  0
   59.5510    6.8988   43.8311 H   0  0  0  0  0  0  0  0  0  0  0  0
  4  5  2  0
  5  6  1  0
  8  9  2  0
  9 10  1  0
  8 11  1  0
  2 12  1  0
  2 13  2  0
  3 13  1  0
 11 14  2  0
 13 14  1  0
 10 15  2  0
 12 15  1  0
 14 15  1  0
  8 16  1  0
  3 17  1  0
  4 17  1  0
  7 17  2  0
  6 18  2  0
  7 18  1  0
  7 19  1  0
  4 20  1  0
  5 21  1  0
 21 22  1  0
 22 23  2  0
 22 24  2  0
 22 25  1  0
 25 26  1  0
 26 27  1  0
 16 28  2  0
  1 29  2  0
 28 29  1  0
  1 30  1  0
 16 31  1  0
 30 31  2  0
  1 32  1  0
  3 33  2  0
  2 34  1  0
  6 35  1  0
  9 36  1  0
 11 37  1  0
 12 38  1  0
 18 39  1  0
 21 40  1  0
 25 41  1  0
 25 42  1  0
 26 43  1  0
 26 44  1  0
 27 45  1  0
 27 46  1  0
 27 47  1  0
 28 48  1  0
 29 49  1  0
 30 50  1  0
 31 51  1  0
M  END
$$$$
