PDB_DB00819_88
     RDKit          3D

 19 19  0  0  0  0  0  0  0  0999 V2000
    3.6670  -18.3630   17.5620 C   0  0  0  0  0  0  0  0  0  0  0  0
    2.9590  -20.6110   17.2580 C   0  0  0  0  0  0  0  0  0  0  0  0
    0.9160  -21.8670   16.7960 C   0  0  0  0  0  0  0  0  0  0  0  0
    0.4160  -22.7440   15.6780 C   0  0  0  0  0  0  0  0  0  0  0  0
    5.1680  -16.4810   18.8290 N   0  0  0  0  0  0  0  0  0  0  0  0
    4.2050  -20.3900   16.7370 N   0  0  0  0  0  0  0  0  0  0  0  0
    4.6530  -19.0140   16.9150 N   0  0  0  0  0  0  0  0  0  0  0  0
    2.2550  -21.7940   16.9370 N   0  0  0  0  0  0  0  0  0  0  0  0
    3.9230  -15.9110   16.7350 O   0  0  0  0  0  0  0  0  0  0  0  0
    2.6380  -16.3780   18.7800 O   0  0  0  0  0  0  0  0  0  0  0  0
    0.1110  -21.2680   17.5410 O   0  0  0  0  0  0  0  0  0  0  0  0
    3.8030  -16.6770   17.9630 S   0  0  0  0  0  0  0  0  0  0  0  0
    2.2810  -19.3190   17.9490 S   0  0  0  0  0  0  0  0  0  0  0  0
   -0.0869  -23.6262   16.1009 H   0  0  0  0  0  0  0  0  0  0  0  0
   -0.2953  -22.1783   15.0583 H   0  0  0  0  0  0  0  0  0  0  0  0
    1.2652  -23.0680   15.0583 H   0  0  0  0  0  0  0  0  0  0  0  0
    4.9446  -16.5131   19.8340 H   0  0  0  0  0  0  0  0  0  0  0  0
    5.8309  -17.2354   18.6004 H   0  0  0  0  0  0  0  0  0  0  0  0
    2.8008  -22.6570   16.8019 H   0  0  0  0  0  0  0  0  0  0  0  0
  3  4  1  0
  2  6  2  0
  1  7  2  0
  6  7  1  0
  2  8  1  0
  3  8  1  0
  3 11  2  0
  1 12  1  0
  5 12  1  0
  9 12  2  0
 10 12  2  0
  1 13  1  0
  2 13  1  0
  4 14  1  0
  4 15  1  0
  4 16  1  0
  5 17  1  0
  5 18  1  0
  8 19  1  0
M  END
$$$$
