PDB_DB00188_91
     RDKit          3D

 53 54  0  0  0  0  0  0  0  0999 V2000
   49.4360 -136.7640   55.4810 N   0  0  0  0  0  0  0  0  0  0  0  0
   49.0460 -137.9940   55.8570 C   0  0  0  0  0  0  0  0  0  0  0  0
   49.9350 -139.0630   55.7410 C   0  0  0  0  0  0  0  0  0  0  0  0
   51.2270 -138.8740   55.2430 N   0  0  0  0  0  0  0  0  0  0  0  0
   51.6220 -137.5950   54.8580 C   0  0  0  0  0  0  0  0  0  0  0  0
   50.7260 -136.5400   54.9770 C   0  0  0  0  0  0  0  0  0  0  0  0
   47.7570 -138.1900   56.3590 C   0  0  0  0  0  0  0  0  0  0  0  0
   46.9340 -137.2730   56.3440 O   0  0  0  0  0  0  0  0  0  0  0  0
   47.5050 -139.4190   56.8470 N   0  0  0  0  0  0  0  0  0  0  0  0
   46.2120 -139.8090   57.4200 C   0  0  1  0  0  0  0  0  0  0  0  0
   45.8130 -141.0950   56.7260 C   0  0  0  0  0  0  0  0  0  0  0  0
   44.6600 -141.6240   57.3440 C   0  0  0  0  0  0  0  0  0  0  0  0
   43.4200 -140.9990   57.1720 C   0  0  0  0  0  0  0  0  0  0  0  0
   42.2760 -141.5250   57.7750 C   0  0  0  0  0  0  0  0  0  0  0  0
   42.3590 -142.6840   58.5470 C   0  0  0  0  0  0  0  0  0  0  0  0
   43.5890 -143.3180   58.7190 C   0  0  0  0  0  0  0  0  0  0  0  0
   44.7340 -142.7920   58.1170 C   0  0  0  0  0  0  0  0  0  0  0  0
   46.4390 -139.9900   58.9300 C   0  0  0  0  0  0  0  0  0  0  0  0
   47.4350 -140.5900   59.3340 O   0  0  0  0  0  0  0  0  0  0  0  0
   45.5160 -139.4220   59.7330 N   0  0  0  0  0  0  0  0  0  0  0  0
   45.5920 -139.5060   61.2060 C   0  0  1  0  0  0  0  0  0  0  0  0
   45.2190 -138.1890   61.8600 C   0  0  0  0  0  0  0  0  0  0  0  0
   46.0490 -137.0310   61.2590 C   0  0  0  0  0  0  0  0  0  0  0  0
   45.4310 -135.6930   61.7030 C   0  0  0  0  0  0  0  0  0  0  0  0
   47.5260 -137.1050   61.6850 C   0  0  0  0  0  0  0  0  0  0  0  0
   44.6080 -140.5880   61.7280 B   0  0  0  0  0  0  0  0  0  0  0  0
   44.9290 -141.8650   61.1600 O   0  0  0  0  0  0  0  0  0  0  0  0
   43.2680 -140.2200   61.3610 O   0  0  0  0  0  0  0  0  0  0  0  0
   49.6141 -140.0699   56.0462 H   0  0  0  0  0  0  0  0  0  0  0  0
   52.6341 -137.4219   54.4634 H   0  0  0  0  0  0  0  0  0  0  0  0
   51.0288 -135.5264   54.6753 H   0  0  0  0  0  0  0  0  0  0  0  0
   48.2581 -140.1211   56.8166 H   0  0  0  0  0  0  0  0  0  0  0  0
   45.4072 -139.0723   57.2799 H   0  0  0  0  0  0  0  0  0  0  0  0
   45.5997 -140.8892   55.6667 H   0  0  0  0  0  0  0  0  0  0  0  0
   46.6352 -141.8221   56.7996 H   0  0  0  0  0  0  0  0  0  0  0  0
   43.3462 -140.0888   56.5587 H   0  0  0  0  0  0  0  0  0  0  0  0
   41.3060 -141.0239   57.6410 H   0  0  0  0  0  0  0  0  0  0  0  0
   41.4555 -143.0971   59.0193 H   0  0  0  0  0  0  0  0  0  0  0  0
   43.6573 -144.2314   59.3282 H   0  0  0  0  0  0  0  0  0  0  0  0
   45.7017 -143.2978   58.2501 H   0  0  0  0  0  0  0  0  0  0  0  0
   44.7307 -138.9118   59.3042 H   0  0  0  0  0  0  0  0  0  0  0  0
   46.6309 -139.7607   61.4624 H   0  0  0  0  0  0  0  0  0  0  0  0
   44.1496 -137.9923   61.6934 H   0  0  0  0  0  0  0  0  0  0  0  0
   45.4293 -138.2551   62.9377 H   0  0  0  0  0  0  0  0  0  0  0  0
   46.0243 -137.1141   60.1624 H   0  0  0  0  0  0  0  0  0  0  0  0
   45.4092 -135.6459   62.8018 H   0  0  0  0  0  0  0  0  0  0  0  0
   46.0364 -134.8619   61.3123 H   0  0  0  0  0  0  0  0  0  0  0  0
   44.4057 -135.6151   61.3123 H   0  0  0  0  0  0  0  0  0  0  0  0
   47.5912 -137.1083   62.7831 H   0  0  0  0  0  0  0  0  0  0  0  0
   47.9763 -138.0268   61.2882 H   0  0  0  0  0  0  0  0  0  0  0  0
   48.0662 -136.2328   61.2882 H   0  0  0  0  0  0  0  0  0  0  0  0
   45.0930 -142.5174   61.8863 H   0  0  0  0  0  0  0  0  0  0  0  0
   42.7305 -140.0724   62.1792 H   0  0  0  0  0  0  0  0  0  0  0  0
  1  2  2  0
  2  3  1  0
  3  4  2  0
  4  5  1  0
  1  6  1  0
  5  6  2  0
  2  7  1  0
  7  8  2  0
  7  9  1  0
  9 10  1  0
 10 11  1  0
 11 12  1  0
 12 13  2  0
 13 14  1  0
 14 15  2  0
 15 16  1  0
 12 17  1  0
 16 17  2  0
 10 18  1  0
 18 19  2  0
 18 20  1  0
 20 21  1  0
 21 22  1  0
 22 23  1  0
 23 24  1  0
 23 25  1  0
 21 26  1  0
 26 27  1  0
 26 28  1  0
  3 29  1  0
  5 30  1  0
  6 31  1  0
  9 32  1  0
 10 33  1  1
 11 34  1  0
 11 35  1  0
 13 36  1  0
 14 37  1  0
 15 38  1  0
 16 39  1  0
 17 40  1  0
 20 41  1  0
 21 42  1  6
 22 43  1  0
 22 44  1  0
 23 45  1  0
 24 46  1  0
 24 47  1  0
 24 48  1  0
 25 49  1  0
 25 50  1  0
 25 51  1  0
 27 52  1  0
 28 53  1  0
M  END
$$$$
