PDB_DB00814_97
     RDKit          3D

 36 38  0  0  0  0  0  0  0  0999 V2000
   73.1120   23.7710   66.4070 C   0  0  0  0  0  0  0  0  0  0  0  0
   74.1060   23.4760   65.3070 C   0  0  0  0  0  0  0  0  0  0  0  0
   74.4340   24.4170   63.9600 S   0  0  0  0  0  0  0  0  0  0  0  0
   74.8410   22.3700   65.3030 C   0  0  0  0  0  0  0  0  0  0  0  0
   75.6370   22.3370   64.2210 N   0  0  0  0  0  0  0  0  0  0  0  0
   75.6770   23.4180   63.4170 C   0  0  0  0  0  0  0  0  0  0  0  0
   76.3070   23.3610   62.2570 N   0  0  0  0  0  0  0  0  0  0  0  0
   77.2720   22.4280   62.1750 C   0  0  0  0  0  0  0  0  0  0  0  0
   77.5300   21.6020   63.0370 O   0  0  0  0  0  0  0  0  0  0  0  0
   77.9880   22.2900   61.0000 C   0  0  0  0  0  0  0  0  0  0  0  0
   77.9570   23.2100   59.9050 C   0  0  0  0  0  0  0  0  0  0  0  0
   77.0160   24.2070   59.8940 O   0  0  0  0  0  0  0  0  0  0  0  0
   78.7110   23.0750   58.7310 C   0  0  0  0  0  0  0  0  0  0  0  0
   78.9440   24.1860   57.9110 C   0  0  0  0  0  0  0  0  0  0  0  0
   79.8200   23.9950   56.8520 C   0  0  0  0  0  0  0  0  0  0  0  0
   80.4930   22.7890   56.6800 C   0  0  0  0  0  0  0  0  0  0  0  0
   80.3050   21.7300   57.5560 C   0  0  0  0  0  0  0  0  0  0  0  0
   79.5230   21.9760   58.6550 C   0  0  0  0  0  0  0  0  0  0  0  0
   79.0570   20.9000   59.7200 S   0  0  0  0  0  0  0  0  0  0  0  0
   80.1450   19.8090   59.7730 O   0  0  0  0  0  0  0  0  0  0  0  0
   77.7730   20.0770   59.3290 O   0  0  0  0  0  0  0  0  0  0  0  0
   79.0370   21.3670   60.9970 N   0  0  0  0  0  0  0  0  0  0  0  0
   80.0660   21.8650   61.9730 C   0  0  0  0  0  0  0  0  0  0  0  0
   73.5944   23.6278   67.3852 H   0  0  0  0  0  0  0  0  0  0  0  0
   72.7647   24.8109   66.3181 H   0  0  0  0  0  0  0  0  0  0  0  0
   72.2536   23.0889   66.3181 H   0  0  0  0  0  0  0  0  0  0  0  0
   74.8034   21.5897   66.0774 H   0  0  0  0  0  0  0  0  0  0  0  0
   76.0756   23.9863   61.4719 H   0  0  0  0  0  0  0  0  0  0  0  0
   76.9846   24.8497   59.1417 H   0  0  0  0  0  0  0  0  0  0  0  0
   78.4596   25.1561   58.0961 H   0  0  0  0  0  0  0  0  0  0  0  0
   79.9857   24.8124   56.1347 H   0  0  0  0  0  0  0  0  0  0  0  0
   81.1866   22.6735   55.8341 H   0  0  0  0  0  0  0  0  0  0  0  0
   80.7596   20.7442   57.3782 H   0  0  0  0  0  0  0  0  0  0  0  0
   79.7109   21.6931   62.9998 H   0  0  0  0  0  0  0  0  0  0  0  0
   81.0113   21.3247   61.8167 H   0  0  0  0  0  0  0  0  0  0  0  0
   80.2288   22.9416   61.8167 H   0  0  0  0  0  0  0  0  0  0  0  0
  1  2  1  0
  2  3  1  0
  2  4  2  0
  4  5  1  0
  3  6  1  0
  5  6  2  0
  6  7  1  0
  7  8  1  0
  8  9  2  0
  8 10  1  0
 10 11  2  0
 11 12  1  0
 11 13  1  0
 13 14  2  0
 14 15  1  0
 15 16  2  0
 16 17  1  0
 13 18  1  0
 17 18  2  0
 18 19  1  0
 19 20  2  0
 19 21  2  0
 10 22  1  0
 19 22  1  0
 22 23  1  0
  1 24  1  0
  1 25  1  0
  1 26  1  0
  4 27  1  0
  7 28  1  0
 12 29  1  0
 14 30  1  0
 15 31  1  0
 16 32  1  0
 17 33  1  0
 23 34  1  0
 23 35  1  0
 23 36  1  0
M  END
$$$$
