PDB_DB00452_88
     RDKit          3D

 88 91  0  0  0  0  0  0  0  0999 V2000
  -35.4810   67.2450  168.0330 C   0  0  2  0  0  0  0  0  0  0  0  0
  -36.0380   68.4980  168.4270 O   0  0  0  0  0  0  0  0  0  0  0  0
  -34.9530   66.5140  169.2590 C   0  0  2  0  0  0  0  0  0  0  0  0
  -33.9750   67.3450  169.9340 N   0  0  0  0  0  0  0  0  0  0  0  0
  -34.3090   65.1920  168.8610 C   0  0  1  0  0  0  0  0  0  0  0  0
  -35.3290   64.2710  168.4580 O   0  0  0  0  0  0  0  0  0  0  0  0
  -33.3150   65.3770  167.7180 C   0  0  2  0  0  0  0  0  0  0  0  0
  -32.1120   65.9690  168.2230 O   0  0  0  0  0  0  0  0  0  0  0  0
  -33.8780   66.2490  166.5970 C   0  0  2  0  0  0  0  0  0  0  0  0
  -34.4050   67.4670  167.1260 O   0  0  0  0  0  0  0  0  0  0  0  0
  -34.9520   65.5190  165.7940 C   0  0  0  0  0  0  0  0  0  0  0  0
  -37.3470   71.7720  166.0930 C   0  0  1  0  0  0  0  0  0  0  0  0
  -37.7640   72.3800  164.8450 N   0  0  0  0  0  0  0  0  0  0  0  0
  -38.3560   70.7020  166.4570 C   0  0  1  0  0  0  0  0  0  0  0  0
  -37.8480   69.8840  167.6380 C   0  0  1  0  0  0  0  0  0  0  0  0
  -38.7970   68.8700  167.9620 O   0  0  0  0  0  0  0  0  0  0  0  0
  -36.5060   69.2440  167.3060 C   0  0  1  0  0  0  0  0  0  0  0  0
  -35.4800   70.3090  166.9370 C   0  0  1  0  0  0  0  0  0  0  0  0
  -34.2360   69.6680  166.5580 N   0  0  0  0  0  0  0  0  0  0  0  0
  -35.9790   71.1730  165.7850 C   0  0  0  0  0  0  0  0  0  0  0  0
  -39.2050   68.9430  169.3250 C   0  0  1  0  0  0  0  0  0  0  0  0
  -40.5220   68.2050  169.5050 C   0  0  1  0  0  0  0  0  0  0  0  0
  -40.2550   67.1060  170.5180 C   0  0  1  0  0  0  0  0  0  0  0  0
  -38.7650   67.1640  170.8260 C   0  0  2  0  0  0  0  0  0  0  0  0
  -38.2270   68.3050  170.1520 O   0  0  0  0  0  0  0  0  0  0  0  0
  -38.0520   65.9060  170.3490 C   0  0  0  0  0  0  0  0  0  0  0  0
  -42.9450   69.2960  174.1920 C   0  0  1  0  0  0  0  0  0  0  0  0
  -41.5640   69.0500  174.7990 C   0  0  1  0  0  0  0  0  0  0  0  0
  -40.7380   68.0810  173.9560 C   0  0  2  0  0  0  0  0  0  0  0  0
  -40.7220   68.4380  172.4660 C   0  0  1  0  0  0  0  0  0  0  0  0
  -41.0490   67.2770  171.6970 O   0  0  0  0  0  0  0  0  0  0  0  0
  -42.9440   69.3400  172.6540 C   0  0  1  0  0  0  0  0  0  0  0  0
  -41.6180   69.5070  172.1380 O   0  0  0  0  0  0  0  0  0  0  0  0
  -43.5990   68.1230  171.9990 C   0  0  0  0  0  0  0  0  0  0  0  0
  -35.9280   64.9170  166.6810 N   0  0  0  0  0  0  0  0  0  0  0  0
  -41.5360   69.1000  169.9740 O   0  0  0  0  0  0  0  0  0  0  0  0
  -40.8660   70.2950  174.9130 O   0  0  0  0  0  0  0  0  0  0  0  0
  -43.8550   68.3010  174.6830 O   0  0  0  0  0  0  0  0  0  0  0  0
  -37.3260   66.1960  169.1500 O   0  0  0  0  0  0  0  0  0  0  0  0
  -39.6000   71.3220  166.7990 O   0  0  0  0  0  0  0  0  0  0  0  0
  -43.5360   66.9750  172.8830 N   0  0  0  0  0  0  0  0  0  0  0  0
  -41.2590   66.7370  174.1240 N   0  0  0  0  0  0  0  0  0  0  0  0
  -36.2595   66.6393  167.5462 H   0  0  0  0  0  0  0  0  0  0  0  0
  -35.7958   66.3055  169.9345 H   0  0  0  0  0  0  0  0  0  0  0  0
  -34.0879   67.2491  170.9533 H   0  0  0  0  0  0  0  0  0  0  0  0
  -33.0266   67.0472  169.6641 H   0  0  0  0  0  0  0  0  0  0  0  0
  -33.7618   64.8006  169.7313 H   0  0  0  0  0  0  0  0  0  0  0  0
  -35.7590   63.8828  169.2608 H   0  0  0  0  0  0  0  0  0  0  0  0
  -33.1074   64.3833  167.2944 H   0  0  0  0  0  0  0  0  0  0  0  0
  -32.1301   65.9601  169.2128 H   0  0  0  0  0  0  0  0  0  0  0  0
  -33.0471   66.4808  165.9145 H   0  0  0  0  0  0  0  0  0  0  0  0
  -35.4587   66.2362  165.1315 H   0  0  0  0  0  0  0  0  0  0  0  0
  -34.4744   64.7259  165.1999 H   0  0  0  0  0  0  0  0  0  0  0  0
  -37.2888   72.4716  166.9399 H   0  0  0  0  0  0  0  0  0  0  0  0
  -38.3357   73.2135  165.0433 H   0  0  0  0  0  0  0  0  0  0  0  0
  -36.9328   72.6549  164.3024 H   0  0  0  0  0  0  0  0  0  0  0  0
  -38.5008   70.0320  165.5967 H   0  0  0  0  0  0  0  0  0  0  0  0
  -37.7152   70.5535  168.5006 H   0  0  0  0  0  0  0  0  0  0  0  0
  -36.6420   68.5719  166.4459 H   0  0  0  0  0  0  0  0  0  0  0  0
  -35.3192   70.9565  167.8116 H   0  0  0  0  0  0  0  0  0  0  0  0
  -33.7158   69.3999  167.4056 H   0  0  0  0  0  0  0  0  0  0  0  0
  -34.4394   68.8268  165.9996 H   0  0  0  0  0  0  0  0  0  0  0  0
  -35.2615   71.9887  165.6121 H   0  0  0  0  0  0  0  0  0  0  0  0
  -36.0712   70.5392  164.8907 H   0  0  0  0  0  0  0  0  0  0  0  0
  -39.3166   70.0008  169.6053 H   0  0  0  0  0  0  0  0  0  0  0  0
  -40.8839   67.7856  168.5547 H   0  0  0  0  0  0  0  0  0  0  0  0
  -40.5326   66.1201  170.1169 H   0  0  0  0  0  0  0  0  0  0  0  0
  -38.6171   67.2373  171.9135 H   0  0  0  0  0  0  0  0  0  0  0  0
  -37.3539   65.5627  171.1267 H   0  0  0  0  0  0  0  0  0  0  0  0
  -38.7927   65.1179  170.1482 H   0  0  0  0  0  0  0  0  0  0  0  0
  -43.2725   70.2975  174.5077 H   0  0  0  0  0  0  0  0  0  0  0  0
  -41.7065   68.5981  175.7917 H   0  0  0  0  0  0  0  0  0  0  0  0
  -39.6993   68.1494  174.3117 H   0  0  0  0  0  0  0  0  0  0  0  0
  -39.7077   68.7884  172.2243 H   0  0  0  0  0  0  0  0  0  0  0  0
  -43.5578   70.2147  172.3930 H   0  0  0  0  0  0  0  0  0  0  0  0
  -44.6519   68.3532  171.7790 H   0  0  0  0  0  0  0  0  0  0  0  0
  -43.0604   67.8863  171.0695 H   0  0  0  0  0  0  0  0  0  0  0  0
  -35.6534   65.0863  167.6592 H   0  0  0  0  0  0  0  0  0  0  0  0
  -36.8535   65.3343  166.5070 H   0  0  0  0  0  0  0  0  0  0  0  0
  -41.5405   69.1040  170.9640 H   0  0  0  0  0  0  0  0  0  0  0  0
  -40.7415   70.5171  175.8697 H   0  0  0  0  0  0  0  0  0  0  0  0
  -43.8487   68.3079  175.6730 H   0  0  0  0  0  0  0  0  0  0  0  0
  -36.4325   66.5529  169.3834 H   0  0  0  0  0  0  0  0  0  0  0  0
  -39.6872   71.3655  167.7842 H   0  0  0  0  0  0  0  0  0  0  0  0
  -43.5535   67.2943  173.8621 H   0  0  0  0  0  0  0  0  0  0  0  0
  -44.3446   66.3616  172.7074 H   0  0  0  0  0  0  0  0  0  0  0  0
  -41.3416   66.5239  175.1283 H   0  0  0  0  0  0  0  0  0  0  0  0
  -42.1867   66.6706  173.6815 H   0  0  0  0  0  0  0  0  0  0  0  0
  2  1  1  0
  3  1  1  0
  4  3  1  0
  5  3  1  0
  6  5  1  0
  7  5  1  0
  8  7  1  0
  9  7  1  0
 10  9  1  0
 10  1  1  0
 11  9  1  0
 13 12  1  0
 14 12  1  0
 15 14  1  0
 16 15  1  0
 17 15  1  0
 17  2  1  0
 18 17  1  0
 19 18  1  0
 20 18  1  0
 20 12  1  0
 21 16  1  0
 22 21  1  0
 23 22  1  0
 24 23  1  0
 25 24  1  0
 25 21  1  0
 26 24  1  0
 28 27  1  0
 29 28  1  0
 30 29  1  0
 31 30  1  0
 31 23  1  0
 32 27  1  0
 33 32  1  0
 33 30  1  0
 34 32  1  0
 35 11  1  0
 36 22  1  0
 37 28  1  0
 38 27  1  0
 39 26  1  0
 40 14  1  0
 41 34  1  0
 42 29  1  0
  1 43  1  6
  3 44  1  1
  4 45  1  0
  4 46  1  0
  5 47  1  1
  6 48  1  0
  7 49  1  6
  8 50  1  0
  9 51  1  6
 11 52  1  0
 11 53  1  0
 12 54  1  1
 13 55  1  0
 13 56  1  0
 14 57  1  6
 15 58  1  1
 17 59  1  6
 18 60  1  1
 19 61  1  0
 19 62  1  0
 20 63  1  0
 20 64  1  0
 21 65  1  1
 22 66  1  6
 23 67  1  6
 24 68  1  1
 26 69  1  0
 26 70  1  0
 27 71  1  1
 28 72  1  1
 29 73  1  1
 30 74  1  6
 32 75  1  1
 34 76  1  0
 34 77  1  0
 35 78  1  0
 35 79  1  0
 36 80  1  0
 37 81  1  0
 38 82  1  0
 39 83  1  0
 40 84  1  0
 41 85  1  0
 41 86  1  0
 42 87  1  0
 42 88  1  0
M  END
$$$$
