PDB_DB09053_95
     RDKit          3D

 57 61  0  0  0  0  0  0  0  0999 V2000
  -31.5700  -41.9280    0.7280 N   0  0  0  0  0  0  0  0  0  0  0  0
  -31.3900  -40.9690    1.7080 C   0  0  0  0  0  0  0  0  0  0  0  0
  -30.0980  -40.5620    1.9920 N   0  0  0  0  0  0  0  0  0  0  0  0
  -29.0860  -41.0560    1.2820 C   0  0  0  0  0  0  0  0  0  0  0  0
  -29.2780  -41.9590    0.3340 C   0  0  0  0  0  0  0  0  0  0  0  0
  -30.5120  -42.4000    0.0630 C   0  0  0  0  0  0  0  0  0  0  0  0
  -24.8440  -39.8360    7.3090 C   0  0  0  0  0  0  0  0  0  0  0  0
  -30.6660  -43.3240   -0.8840 N   0  0  0  0  0  0  0  0  0  0  0  0
  -27.8500  -39.6070    6.2950 O   0  0  0  0  0  0  0  0  0  0  0  0
  -25.6550  -38.7320    6.6520 C   0  0  0  0  0  0  0  0  0  0  0  0
  -24.7140  -48.7820   -4.3510 C   0  0  0  0  0  0  0  0  0  0  0  0
  -23.9530  -47.7270   -4.8210 C   0  0  0  0  0  0  0  0  0  0  0  0
  -26.0100  -48.5510   -3.9200 C   0  0  0  0  0  0  0  0  0  0  0  0
  -24.4790  -46.4510   -4.8490 C   0  0  0  0  0  0  0  0  0  0  0  0
  -26.5420  -47.2740   -3.9510 C   0  0  0  0  0  0  0  0  0  0  0  0
  -26.1750  -44.6370   -2.0780 C   0  0  0  0  0  0  0  0  0  0  0  0
  -27.5940  -43.3180   -3.4630 C   0  0  0  0  0  0  0  0  0  0  0  0
  -26.6210  -43.9240   -0.9640 C   0  0  0  0  0  0  0  0  0  0  0  0
  -28.0400  -42.6210   -2.3600 C   0  0  0  0  0  0  0  0  0  0  0  0
  -25.1700  -38.5650    2.9930 C   0  0  0  0  0  0  0  0  0  0  0  0
  -25.8640  -39.3530    1.8820 C   0  0  0  0  0  0  0  0  0  0  0  0
  -24.9990  -39.4620    4.1720 C   0  0  0  0  0  0  0  0  0  0  0  0
  -27.2540  -40.4390    3.6770 C   0  0  0  0  0  0  0  0  0  0  0  0
  -27.2390  -41.3830    0.6000 N   0  0  0  0  0  0  0  0  0  0  0  0
  -26.2700  -44.9640   -4.4710 O   0  0  0  0  0  0  0  0  0  0  0  0
  -26.7360  -39.4020    5.8320 C   0  0  0  0  0  0  0  0  0  0  0  0
  -25.7700  -46.2170   -4.4110 C   0  0  0  0  0  0  0  0  0  0  0  0
  -26.6670  -44.3340   -3.3390 C   0  0  0  0  0  0  0  0  0  0  0  0
  -27.5860  -42.9290   -1.0920 C   0  0  0  0  0  0  0  0  0  0  0  0
  -28.0400  -42.1720   -0.0920 C   0  0  0  0  0  0  0  0  0  0  0  0
  -27.2510  -39.8290    2.3030 C   0  0  2  0  0  0  0  0  0  0  0  0
  -27.7890  -40.8070    1.3310 N   0  0  0  0  0  0  0  0  0  0  0  0
  -26.3370  -39.7790    4.6160 N   0  0  0  0  0  0  0  0  0  0  0  0
  -32.2490  -40.5419    2.2463 H   0  0  0  0  0  0  0  0  0  0  0  0
  -23.9948  -39.5815    7.9602 H   0  0  0  0  0  0  0  0  0  0  0  0
  -25.1060  -40.8898    7.1335 H   0  0  0  0  0  0  0  0  0  0  0  0
  -29.8449  -43.6826   -1.3920 H   0  0  0  0  0  0  0  0  0  0  0  0
  -31.6062  -43.6799   -1.1083 H   0  0  0  0  0  0  0  0  0  0  0  0
  -25.4879  -37.6495    6.7533 H   0  0  0  0  0  0  0  0  0  0  0  0
  -24.2929  -49.7977   -4.3197 H   0  0  0  0  0  0  0  0  0  0  0  0
  -22.9263  -47.9051   -5.1733 H   0  0  0  0  0  0  0  0  0  0  0  0
  -26.6203  -49.3883   -3.5506 H   0  0  0  0  0  0  0  0  0  0  0  0
  -23.8681  -45.6156   -5.2217 H   0  0  0  0  0  0  0  0  0  0  0  0
  -27.5735  -47.0975   -3.6121 H   0  0  0  0  0  0  0  0  0  0  0  0
  -25.4329  -45.4397   -1.9558 H   0  0  0  0  0  0  0  0  0  0  0  0
  -27.9834  -43.0602   -4.4590 H   0  0  0  0  0  0  0  0  0  0  0  0
  -26.2043  -44.1514    0.0283 H   0  0  0  0  0  0  0  0  0  0  0  0
  -28.7684  -41.8073   -2.4917 H   0  0  0  0  0  0  0  0  0  0  0  0
  -24.1859  -38.2192    2.6438 H   0  0  0  0  0  0  0  0  0  0  0  0
  -25.7758  -37.6895    3.2697 H   0  0  0  0  0  0  0  0  0  0  0  0
  -25.9631  -38.7075    0.9968 H   0  0  0  0  0  0  0  0  0  0  0  0
  -25.2522  -40.2398    1.6598 H   0  0  0  0  0  0  0  0  0  0  0  0
  -24.4631  -40.3781    3.8830 H   0  0  0  0  0  0  0  0  0  0  0  0
  -24.4093  -38.9818    4.9668 H   0  0  0  0  0  0  0  0  0  0  0  0
  -28.2740  -40.3745    4.0838 H   0  0  0  0  0  0  0  0  0  0  0  0
  -26.9114  -41.4787    3.5689 H   0  0  0  0  0  0  0  0  0  0  0  0
  -27.8939  -38.9367    2.3251 H   0  0  0  0  0  0  0  0  0  0  0  0
  1  2  2  0
  2  3  1  0
  3  4  2  0
  4  5  1  0
  1  6  1  0
  5  6  2  0
  6  8  1  0
  7 10  2  3
 11 12  2  0
 11 13  1  0
 12 14  1  0
 13 15  2  0
 16 18  2  0
 17 19  1  0
 20 21  1  0
 20 22  1  0
  9 26  2  0
 10 26  1  0
 14 27  2  0
 15 27  1  0
 25 27  1  0
 16 28  1  0
 17 28  2  0
 25 28  1  0
 18 29  1  0
 19 29  2  0
  5 30  1  0
 24 30  2  0
 29 30  1  0
 21 31  1  0
 23 31  1  0
  4 32  1  0
 24 32  1  0
 31 32  1  0
 22 33  1  0
 23 33  1  0
 26 33  1  0
  2 34  1  0
  7 35  1  0
  7 36  1  0
  8 37  1  0
  8 38  1  0
 10 39  1  0
 11 40  1  0
 12 41  1  0
 13 42  1  0
 14 43  1  0
 15 44  1  0
 16 45  1  0
 17 46  1  0
 18 47  1  0
 19 48  1  0
 20 49  1  0
 20 50  1  0
 21 51  1  0
 21 52  1  0
 22 53  1  0
 22 54  1  0
 23 55  1  0
 23 56  1  0
 31 57  1  1
M  END
$$$$
