PDB_DB05812_93
     RDKit          3D

 57 61  0  0  0  0  0  0  0  0999 V2000
    5.9820    6.4360  -59.3710 C   0  0  0  0  0  0  0  0  0  0  0  0
    4.5270    6.0480  -58.9960 C   0  0  0  0  0  0  0  0  0  0  0  0
    4.6740    5.4430  -57.5960 C   0  0  2  0  0  0  0  0  0  0  0  0
    3.4150    4.9450  -57.1250 O   0  0  0  0  0  0  0  0  0  0  0  0
    5.2560    6.5030  -56.6380 C   0  0  0  0  0  0  0  0  0  0  0  0
    6.5130    6.8830  -57.1160 C   0  0  0  0  0  0  0  0  0  0  0  0
    7.6810    6.7580  -56.3590 C   0  0  0  0  0  0  0  0  0  0  0  0
    8.8550    7.2230  -56.9960 C   0  0  0  0  0  0  0  0  0  0  0  0
    8.7940    8.3220  -58.0220 C   0  0  2  0  0  0  0  0  0  0  0  0
    8.0800    7.6320  -59.0160 C   0  0  1  0  0  0  0  0  0  0  0  0
    6.6210    7.4460  -58.4210 C   0  0  1  0  0  0  0  0  0  0  0  0
    8.0390    8.2650  -60.3900 C   0  0  0  0  0  0  0  0  0  0  0  0
    9.5120    8.4220  -60.8130 C   0  0  0  0  0  0  0  0  0  0  0  0
   10.2550    9.3370  -59.7440 C   0  0  1  0  0  0  0  0  0  0  0  0
   10.3050    8.4680  -58.5140 C   0  0  1  0  0  0  0  0  0  0  0  0
   11.1680    9.1620  -57.6340 C   0  0  0  0  0  0  0  0  0  0  0  0
   12.2780    9.1150  -58.5300 C   0  0  0  0  0  0  0  0  0  0  0  0
   11.7150    9.2470  -59.7990 C   0  0  0  0  0  0  0  0  0  0  0  0
    9.7660   10.7690  -59.5640 C   0  0  0  0  0  0  0  0  0  0  0  0
    5.7870    8.7130  -58.5000 C   0  0  0  0  0  0  0  0  0  0  0  0
   12.4170    9.2560  -60.9450 C   0  0  0  0  0  0  0  0  0  0  0  0
   13.7610    8.8850  -61.0110 C   0  0  0  0  0  0  0  0  0  0  0  0
   14.4760    8.9720  -62.2120 N   0  0  0  0  0  0  0  0  0  0  0  0
   13.9680    9.6120  -63.3140 C   0  0  0  0  0  0  0  0  0  0  0  0
   12.6780   10.1280  -63.2160 C   0  0  0  0  0  0  0  0  0  0  0  0
   11.9370    9.9730  -62.0380 C   0  0  0  0  0  0  0  0  0  0  0  0
    6.5950    5.5227  -59.3679 H   0  0  0  0  0  0  0  0  0  0  0  0
    5.9383    6.9142  -60.3607 H   0  0  0  0  0  0  0  0  0  0  0  0
    3.8754    6.9341  -58.9761 H   0  0  0  0  0  0  0  0  0  0  0  0
    4.0658    5.3574  -59.7174 H   0  0  0  0  0  0  0  0  0  0  0  0
    5.3673    4.5900  -57.6376 H   0  0  0  0  0  0  0  0  0  0  0  0
    3.4104    4.9432  -56.1350 H   0  0  0  0  0  0  0  0  0  0  0  0
    4.5909    7.3785  -56.6035 H   0  0  0  0  0  0  0  0  0  0  0  0
    5.3458    6.0883  -55.6231 H   0  0  0  0  0  0  0  0  0  0  0  0
    7.6868    6.3307  -55.3454 H   0  0  0  0  0  0  0  0  0  0  0  0
    9.5253    7.5760  -56.1984 H   0  0  0  0  0  0  0  0  0  0  0  0
    9.1697    6.3527  -57.5906 H   0  0  0  0  0  0  0  0  0  0  0  0
    8.3796    9.2992  -57.7332 H   0  0  0  0  0  0  0  0  0  0  0  0
    8.6031    6.6870  -59.2243 H   0  0  0  0  0  0  0  0  0  0  0  0
    7.5028    7.6151  -61.0972 H   0  0  0  0  0  0  0  0  0  0  0  0
    7.5115    9.2302  -60.3798 H   0  0  0  0  0  0  0  0  0  0  0  0
    9.9932    7.4336  -60.8524 H   0  0  0  0  0  0  0  0  0  0  0  0
    9.5686    8.8870  -61.8083 H   0  0  0  0  0  0  0  0  0  0  0  0
   10.6926    7.4455  -58.6336 H   0  0  0  0  0  0  0  0  0  0  0  0
   10.8312   10.1859  -57.4142 H   0  0  0  0  0  0  0  0  0  0  0  0
   11.3023    8.7673  -56.6161 H   0  0  0  0  0  0  0  0  0  0  0  0
   13.3420    9.0001  -58.2758 H   0  0  0  0  0  0  0  0  0  0  0  0
    9.6879   10.9976  -58.4909 H   0  0  0  0  0  0  0  0  0  0  0  0
   10.4785   11.4618  -60.0356 H   0  0  0  0  0  0  0  0  0  0  0  0
    8.7786   10.8813  -60.0356 H   0  0  0  0  0  0  0  0  0  0  0  0
    5.5560    9.0639  -57.4834 H   0  0  0  0  0  0  0  0  0  0  0  0
    6.3507    9.4901  -59.0369 H   0  0  0  0  0  0  0  0  0  0  0  0
    4.8503    8.5025  -59.0369 H   0  0  0  0  0  0  0  0  0  0  0  0
   14.2665    8.5185  -60.1054 H   0  0  0  0  0  0  0  0  0  0  0  0
   14.5560    9.7136  -64.2381 H   0  0  0  0  0  0  0  0  0  0  0  0
   12.2376   10.6617  -64.0711 H   0  0  0  0  0  0  0  0  0  0  0  0
   10.9403   10.4340  -61.9737 H   0  0  0  0  0  0  0  0  0  0  0  0
  1  2  1  0
  2  3  1  0
  3  4  1  0
  3  5  1  0
  5  6  1  0
  6  7  2  0
  7  8  1  0
  8  9  1  0
  9 10  1  0
  1 11  1  0
  6 11  1  0
 10 11  1  0
 10 12  1  0
 12 13  1  0
 13 14  1  0
  9 15  1  0
 14 15  1  0
 15 16  1  0
 16 17  1  0
 14 18  1  0
 17 18  2  0
 14 19  1  1
 11 20  1  1
 18 21  1  0
 21 22  2  0
 22 23  1  0
 24 23  2  0
 24 25  1  0
 21 26  1  0
 25 26  2  0
  1 27  1  0
  1 28  1  0
  2 29  1  0
  2 30  1  0
  3 31  1  6
  4 32  1  0
  5 33  1  0
  5 34  1  0
  7 35  1  0
  8 36  1  0
  8 37  1  0
  9 38  1  1
 10 39  1  6
 12 40  1  0
 12 41  1  0
 13 42  1  0
 13 43  1  0
 15 44  1  6
 16 45  1  0
 16 46  1  0
 17 47  1  0
 19 48  1  0
 19 49  1  0
 19 50  1  0
 20 51  1  0
 20 52  1  0
 20 53  1  0
 22 54  1  0
 24 55  1  0
 25 56  1  0
 26 57  1  0
M  END
$$$$
