PDB_DB00452_94
     RDKit          3D

 88 91  0  0  0  0  0  0  0  0999 V2000
  -23.3880   84.2340  120.9250 C   0  0  2  0  0  0  0  0  0  0  0  0
  -24.1890   83.3340  120.1960 O   0  0  0  0  0  0  0  0  0  0  0  0
  -21.9360   83.9710  120.5190 C   0  0  2  0  0  0  0  0  0  0  0  0
  -21.7340   84.2670  119.1300 N   0  0  0  0  0  0  0  0  0  0  0  0
  -21.5510   82.5720  120.7410 C   0  0  1  0  0  0  0  0  0  0  0  0
  -20.1400   82.5570  120.7140 O   0  0  0  0  0  0  0  0  0  0  0  0
  -22.0070   82.0020  121.9750 C   0  0  2  0  0  0  0  0  0  0  0  0
  -22.1580   80.6070  121.8050 O   0  0  0  0  0  0  0  0  0  0  0  0
  -23.3440   82.5040  122.4440 C   0  0  2  0  0  0  0  0  0  0  0  0
  -23.5150   83.9840  122.2700 O   0  0  0  0  0  0  0  0  0  0  0  0
  -23.6710   82.0170  123.8290 C   0  0  0  0  0  0  0  0  0  0  0  0
  -27.6380   84.0950  117.9050 C   0  0  1  0  0  0  0  0  0  0  0  0
  -28.8970   84.5680  117.3370 N   0  0  0  0  0  0  0  0  0  0  0  0
  -26.5590   85.1610  117.9840 C   0  0  1  0  0  0  0  0  0  0  0  0
  -25.2810   84.4030  118.3650 C   0  0  1  0  0  0  0  0  0  0  0  0
  -24.0950   85.0990  118.0400 O   0  0  0  0  0  0  0  0  0  0  0  0
  -25.3820   83.9760  119.7930 C   0  0  1  0  0  0  0  0  0  0  0  0
  -26.5840   83.0430  119.9900 C   0  0  1  0  0  0  0  0  0  0  0  0
  -26.8160   82.8370  121.3930 N   0  0  0  0  0  0  0  0  0  0  0  0
  -27.8650   83.5330  119.2810 C   0  0  0  0  0  0  0  0  0  0  0  0
  -24.1550   86.4660  118.4250 C   0  0  1  0  0  0  0  0  0  0  0  0
  -22.8430   86.9960  118.8790 C   0  0  1  0  0  0  0  0  0  0  0  0
  -22.4870   88.0390  117.9790 C   0  0  1  0  0  0  0  0  0  0  0  0
  -23.5430   88.0900  116.9420 C   0  0  2  0  0  0  0  0  0  0  0  0
  -24.6170   87.3180  117.3640 O   0  0  0  0  0  0  0  0  0  0  0  0
  -23.0720   87.6580  115.5740 C   0  0  0  0  0  0  0  0  0  0  0  0
  -23.4240   92.5430  117.0600 C   0  0  1  0  0  0  0  0  0  0  0  0
  -23.1100   92.3620  118.4810 C   0  0  1  0  0  0  0  0  0  0  0  0
  -21.9480   91.5940  118.7010 C   0  0  2  0  0  0  0  0  0  0  0  0
  -21.9160   90.2990  117.9450 C   0  0  1  0  0  0  0  0  0  0  0  0
  -22.4470   89.2380  118.7280 O   0  0  0  0  0  0  0  0  0  0  0  0
  -23.5330   91.2360  116.3060 C   0  0  1  0  0  0  0  0  0  0  0  0
  -22.5110   90.3230  116.5690 O   0  0  0  0  0  0  0  0  0  0  0  0
  -24.8900   90.5830  116.5070 C   0  0  0  0  0  0  0  0  0  0  0  0
  -25.0720   82.1000  124.2520 N   0  0  0  0  0  0  0  0  0  0  0  0
  -23.0740   87.4970  120.1350 O   0  0  0  0  0  0  0  0  0  0  0  0
  -22.8970   93.6800  119.0040 O   0  0  0  0  0  0  0  0  0  0  0  0
  -24.6510   93.2210  116.9450 O   0  0  0  0  0  0  0  0  0  0  0  0
  -23.6660   88.2490  114.5010 O   0  0  0  0  0  0  0  0  0  0  0  0
  -26.4270   85.8030  116.7990 O   0  0  0  0  0  0  0  0  0  0  0  0
  -25.3020   89.6350  115.4990 N   0  0  0  0  0  0  0  0  0  0  0  0
  -22.0220   91.1990  120.1010 N   0  0  0  0  0  0  0  0  0  0  0  0
  -23.6886   85.2721  120.7201 H   0  0  0  0  0  0  0  0  0  0  0  0
  -21.3145   84.6258  121.1475 H   0  0  0  0  0  0  0  0  0  0  0  0
  -21.1556   85.1145  119.0402 H   0  0  0  0  0  0  0  0  0  0  0  0
  -21.2560   83.4755  118.6763 H   0  0  0  0  0  0  0  0  0  0  0  0
  -22.0245   81.9569  119.9617 H   0  0  0  0  0  0  0  0  0  0  0  0
  -19.7922   82.5533  121.6409 H   0  0  0  0  0  0  0  0  0  0  0  0
  -21.2506   82.2869  122.7211 H   0  0  0  0  0  0  0  0  0  0  0  0
  -22.2053   80.1697  122.6919 H   0  0  0  0  0  0  0  0  0  0  0  0
  -24.0982   82.0594  121.7780 H   0  0  0  0  0  0  0  0  0  0  0  0
  -23.3686   80.9611  123.8891 H   0  0  0  0  0  0  0  0  0  0  0  0
  -23.1288   82.6949  124.5047 H   0  0  0  0  0  0  0  0  0  0  0  0
  -27.2768   83.3175  117.2157 H   0  0  0  0  0  0  0  0  0  0  0  0
  -29.5467   84.8121  118.0980 H   0  0  0  0  0  0  0  0  0  0  0  0
  -28.7205   85.4001  116.7561 H   0  0  0  0  0  0  0  0  0  0  0  0
  -26.7976   85.9433  118.7195 H   0  0  0  0  0  0  0  0  0  0  0  0
  -25.2015   83.4963  117.7473 H   0  0  0  0  0  0  0  0  0  0  0  0
  -25.5296   84.8696  120.4172 H   0  0  0  0  0  0  0  0  0  0  0  0
  -26.3295   82.0847  119.5136 H   0  0  0  0  0  0  0  0  0  0  0  0
  -26.1624   83.4173  121.9379 H   0  0  0  0  0  0  0  0  0  0  0  0
  -27.7843   83.1019  121.6234 H   0  0  0  0  0  0  0  0  0  0  0  0
  -28.3229   84.3173  119.9016 H   0  0  0  0  0  0  0  0  0  0  0  0
  -28.5114   82.6517  119.1570 H   0  0  0  0  0  0  0  0  0  0  0  0
  -24.8711   86.4804  119.2599 H   0  0  0  0  0  0  0  0  0  0  0  0
  -22.0360   86.2489  118.9016 H   0  0  0  0  0  0  0  0  0  0  0  0
  -21.5107   87.8832  117.4967 H   0  0  0  0  0  0  0  0  0  0  0  0
  -23.8445   89.1413  116.8242 H   0  0  0  0  0  0  0  0  0  0  0  0
  -21.9937   87.8666  115.5131 H   0  0  0  0  0  0  0  0  0  0  0  0
  -23.3432   86.5945  115.5010 H   0  0  0  0  0  0  0  0  0  0  0  0
  -22.5954   93.1164  116.6188 H   0  0  0  0  0  0  0  0  0  0  0  0
  -23.9344   91.8207  118.9682 H   0  0  0  0  0  0  0  0  0  0  0  0
  -21.0790   92.1947  118.3944 H   0  0  0  0  0  0  0  0  0  0  0  0
  -20.8467   90.1193  117.7598 H   0  0  0  0  0  0  0  0  0  0  0  0
  -23.4186   91.5199  115.2495 H   0  0  0  0  0  0  0  0  0  0  0  0
  -24.8683   90.0565  117.4726 H   0  0  0  0  0  0  0  0  0  0  0  0
  -25.6202   91.4038  116.4519 H   0  0  0  0  0  0  0  0  0  0  0  0
  -25.1204   82.1029  125.2809 H   0  0  0  0  0  0  0  0  0  0  0  0
  -25.4903   82.9672  123.8862 H   0  0  0  0  0  0  0  0  0  0  0  0
  -22.7717   86.8415  120.8125 H   0  0  0  0  0  0  0  0  0  0  0  0
  -22.9023   93.6472  119.9934 H   0  0  0  0  0  0  0  0  0  0  0  0
  -25.0057   93.4170  117.8483 H   0  0  0  0  0  0  0  0  0  0  0  0
  -24.3315   88.9111  114.8154 H   0  0  0  0  0  0  0  0  0  0  0  0
  -26.2303   86.7595  116.9620 H   0  0  0  0  0  0  0  0  0  0  0  0
  -25.6702   88.7878  115.9545 H   0  0  0  0  0  0  0  0  0  0  0  0
  -26.0362   90.0557  114.9117 H   0  0  0  0  0  0  0  0  0  0  0  0
  -21.8676   92.0233  120.6989 H   0  0  0  0  0  0  0  0  0  0  0  0
  -22.9520   90.8020  120.2970 H   0  0  0  0  0  0  0  0  0  0  0  0
  2  1  1  0
  3  1  1  0
  4  3  1  0
  5  3  1  0
  6  5  1  0
  7  5  1  0
  8  7  1  0
  9  7  1  0
 10  9  1  0
 10  1  1  0
 11  9  1  0
 13 12  1  0
 14 12  1  0
 15 14  1  0
 16 15  1  0
 17 15  1  0
 17  2  1  0
 18 17  1  0
 19 18  1  0
 20 12  1  0
 20 18  1  0
 21 16  1  0
 22 21  1  0
 23 22  1  0
 24 23  1  0
 25 21  1  0
 25 24  1  0
 26 24  1  0
 28 27  1  0
 29 28  1  0
 30 29  1  0
 31 30  1  0
 31 23  1  0
 32 27  1  0
 33 32  1  0
 33 30  1  0
 34 32  1  0
 35 11  1  0
 36 22  1  0
 37 28  1  0
 38 27  1  0
 39 26  1  0
 40 14  1  0
 41 34  1  0
 42 29  1  0
  1 43  1  1
  3 44  1  1
  4 45  1  0
  4 46  1  0
  5 47  1  6
  6 48  1  0
  7 49  1  1
  8 50  1  0
  9 51  1  6
 11 52  1  0
 11 53  1  0
 12 54  1  6
 13 55  1  0
 13 56  1  0
 14 57  1  1
 15 58  1  6
 17 59  1  1
 18 60  1  6
 19 61  1  0
 19 62  1  0
 20 63  1  0
 20 64  1  0
 21 65  1  1
 22 66  1  1
 23 67  1  6
 24 68  1  6
 26 69  1  0
 26 70  1  0
 27 71  1  6
 28 72  1  1
 29 73  1  1
 30 74  1  6
 32 75  1  6
 34 76  1  0
 34 77  1  0
 35 78  1  0
 35 79  1  0
 36 80  1  0
 37 81  1  0
 38 82  1  0
 39 83  1  0
 40 84  1  0
 41 85  1  0
 41 86  1  0
 42 87  1  0
 42 88  1  0
M  END
$$$$
