PDB_DB00255_94
     RDKit          3D

 40 41  0  0  0  0  0  0  0  0999 V2000
   76.9550   47.4340   79.9600 C   0  0  0  0  0  0  0  0  0  0  0  0
   76.4730   48.7550   79.4530 C   0  0  0  0  0  0  0  0  0  0  0  0
   77.1970   49.3290   78.2140 C   0  0  0  0  0  0  0  0  0  0  0  0
   77.9270   48.2600   77.3750 C   0  0  0  0  0  0  0  0  0  0  0  0
   77.2680   47.6060   76.2880 C   0  0  0  0  0  0  0  0  0  0  0  0
   77.9520   46.6220   75.5030 C   0  0  0  0  0  0  0  0  0  0  0  0
   79.2980   46.2940   75.8110 C   0  0  0  0  0  0  0  0  0  0  0  0
   80.0030   45.3550   75.0840 O   0  0  0  0  0  0  0  0  0  0  0  0
   79.9730   46.9280   76.8860 C   0  0  0  0  0  0  0  0  0  0  0  0
   79.2850   47.9000   77.6520 C   0  0  0  0  0  0  0  0  0  0  0  0
   77.2000   50.6360   77.8610 C   0  0  0  0  0  0  0  0  0  0  0  0
   76.4890   51.7570   78.6530 C   0  0  0  0  0  0  0  0  0  0  0  0
   77.1420   52.4030   79.7500 C   0  0  0  0  0  0  0  0  0  0  0  0
   76.4990   53.4510   80.4780 C   0  0  0  0  0  0  0  0  0  0  0  0
   75.1930   53.8620   80.1130 C   0  0  0  0  0  0  0  0  0  0  0  0
   74.5400   54.8720   80.7860 O   0  0  0  0  0  0  0  0  0  0  0  0
   74.5130   53.2390   79.0280 C   0  0  0  0  0  0  0  0  0  0  0  0
   75.1720   52.1880   78.3080 C   0  0  0  0  0  0  0  0  0  0  0  0
   77.9120   51.2030   76.6110 C   0  0  0  0  0  0  0  0  0  0  0  0
   77.0100   51.4170   75.4150 C   0  0  0  0  0  0  0  0  0  0  0  0
   76.9527   47.4404   81.0600 H   0  0  0  0  0  0  0  0  0  0  0  0
   76.2898   46.6369   79.5966 H   0  0  0  0  0  0  0  0  0  0  0  0
   77.9773   47.2526   79.5966 H   0  0  0  0  0  0  0  0  0  0  0  0
   75.4090   48.6454   79.1963 H   0  0  0  0  0  0  0  0  0  0  0  0
   76.6787   49.4686   80.2644 H   0  0  0  0  0  0  0  0  0  0  0  0
   76.2244   47.8611   76.0518 H   0  0  0  0  0  0  0  0  0  0  0  0
   77.4377   46.1243   74.6676 H   0  0  0  0  0  0  0  0  0  0  0  0
   80.9411   45.1468   75.3223 H   0  0  0  0  0  0  0  0  0  0  0  0
   81.0157   46.6682   77.1209 H   0  0  0  0  0  0  0  0  0  0  0  0
   79.8090   48.3929   78.4841 H   0  0  0  0  0  0  0  0  0  0  0  0
   78.1558   52.0877   80.0377 H   0  0  0  0  0  0  0  0  0  0  0  0
   77.0159   53.9369   81.3186 H   0  0  0  0  0  0  0  0  0  0  0  0
   73.6276   55.1406   80.5113 H   0  0  0  0  0  0  0  0  0  0  0  0
   73.4988   53.5586   78.7466 H   0  0  0  0  0  0  0  0  0  0  0  0
   74.6505   51.7024   77.4701 H   0  0  0  0  0  0  0  0  0  0  0  0
   78.3597   52.1709   76.8806 H   0  0  0  0  0  0  0  0  0  0  0  0
   78.6570   50.4521   76.3092 H   0  0  0  0  0  0  0  0  0  0  0  0
   75.9939   51.6581   75.7606 H   0  0  0  0  0  0  0  0  0  0  0  0
   77.3975   52.2481   74.8075 H   0  0  0  0  0  0  0  0  0  0  0  0
   76.9829   50.5004   74.8075 H   0  0  0  0  0  0  0  0  0  0  0  0
  1  2  1  0
  2  3  1  0
  3  4  1  0
  4  5  2  0
  5  6  1  0
  6  7  2  0
  7  8  1  0
  7  9  1  0
  4 10  1  0
  9 10  2  0
  3 11  2  0
 11 12  1  0
 12 13  2  0
 13 14  1  0
 14 15  2  0
 15 16  1  0
 15 17  1  0
 12 18  1  0
 17 18  2  0
 11 19  1  0
 19 20  1  0
  1 21  1  0
  1 22  1  0
  1 23  1  0
  2 24  1  0
  2 25  1  0
  5 26  1  0
  6 27  1  0
  8 28  1  0
  9 29  1  0
 10 30  1  0
 13 31  1  0
 14 32  1  0
 16 33  1  0
 17 34  1  0
 18 35  1  0
 19 36  1  0
 19 37  1  0
 20 38  1  0
 20 39  1  0
 20 40  1  0
M  END
$$$$
