PDB_DB00741_95
     RDKit          3D

 56 59  0  0  0  0  0  0  0  0999 V2000
   25.9710  108.4680  -27.7210 C   0  0  0  0  0  0  0  0  0  0  0  0
   26.2860  108.0830  -26.2790 C   0  0  0  0  0  0  0  0  0  0  0  0
   26.6890  106.6270  -26.1750 C   0  0  0  0  0  0  0  0  0  0  0  0
   27.2090  105.9030  -27.3420 C   0  0  0  0  0  0  0  0  0  0  0  0
   27.3140  106.4800  -28.5450 C   0  0  0  0  0  0  0  0  0  0  0  0
   27.9790  105.6850  -29.6330 C   0  0  0  0  0  0  0  0  0  0  0  0
   27.1760  105.7250  -30.9130 C   0  0  0  0  0  0  0  0  0  0  0  0
   26.6790  107.1240  -31.2590 C   0  0  2  0  0  0  0  0  0  0  0  0
   25.9780  107.8360  -30.0950 C   0  0  1  0  0  0  0  0  0  0  0  0
   26.8550  107.9090  -28.8180 C   0  0  1  0  0  0  0  0  0  0  0  0
   24.4230  108.9910  -31.7660 C   0  0  0  0  0  0  0  0  0  0  0  0
   25.2670  109.1660  -30.4940 C   0  0  2  0  0  0  0  0  0  0  0  0
   25.1250  108.2730  -32.9180 C   0  0  1  0  0  0  0  0  0  0  0  0
   25.6860  106.9590  -32.3910 C   0  0  1  0  0  0  0  0  0  0  0  0
   26.1750  106.2630  -33.6300 C   0  0  0  0  0  0  0  0  0  0  0  0
   25.2270  106.7090  -34.7330 C   0  0  0  0  0  0  0  0  0  0  0  0
   24.3090  107.7290  -34.1160 C   0  0  2  0  0  0  0  0  0  0  0  0
   26.2380  109.1680  -33.4640 C   0  0  0  0  0  0  0  0  0  0  0  0
   28.1250  108.7460  -29.0020 C   0  0  0  0  0  0  0  0  0  0  0  0
   23.8560  108.7320  -35.1610 C   0  0  0  0  0  0  0  0  0  0  0  0
   22.8040  109.7240  -34.7810 C   0  0  0  0  0  0  0  0  0  0  0  0
   26.5750  106.0340  -25.1170 O   0  0  0  0  0  0  0  0  0  0  0  0
   26.1360  110.3040  -30.6560 O   0  0  0  0  0  0  0  0  0  0  0  0
   23.1480  107.0010  -33.6740 O   0  0  0  0  0  0  0  0  0  0  0  0
   24.3410  108.7540  -36.2840 O   0  0  0  0  0  0  0  0  0  0  0  0
   22.5790  110.6380  -35.8480 O   0  0  0  0  0  0  0  0  0  0  0  0
   24.9427  108.1380  -27.9301 H   0  0  0  0  0  0  0  0  0  0  0  0
   26.1421  109.5540  -27.7581 H   0  0  0  0  0  0  0  0  0  0  0  0
   27.1117  108.7106  -25.9125 H   0  0  0  0  0  0  0  0  0  0  0  0
   25.3815  108.2376  -25.6723 H   0  0  0  0  0  0  0  0  0  0  0  0
   27.5216  104.8550  -27.2239 H   0  0  0  0  0  0  0  0  0  0  0  0
   28.9779  106.1045  -29.8236 H   0  0  0  0  0  0  0  0  0  0  0  0
   28.0524  104.6385  -29.3023 H   0  0  0  0  0  0  0  0  0  0  0  0
   27.8101  105.3643  -31.7363 H   0  0  0  0  0  0  0  0  0  0  0  0
   26.2915  105.0875  -30.7674 H   0  0  0  0  0  0  0  0  0  0  0  0
   27.5477  107.7453  -31.5224 H   0  0  0  0  0  0  0  0  0  0  0  0
   25.1354  107.1885  -29.8108 H   0  0  0  0  0  0  0  0  0  0  0  0
   23.5248  108.4136  -31.5018 H   0  0  0  0  0  0  0  0  0  0  0  0
   24.2017  110.0059  -32.1280 H   0  0  0  0  0  0  0  0  0  0  0  0
   24.6238  109.3891  -29.6300 H   0  0  0  0  0  0  0  0  0  0  0  0
   24.9388  106.3384  -31.8747 H   0  0  0  0  0  0  0  0  0  0  0  0
   27.2069  106.5655  -33.8615 H   0  0  0  0  0  0  0  0  0  0  0  0
   26.1861  105.1694  -33.5122 H   0  0  0  0  0  0  0  0  0  0  0  0
   25.7927  107.1584  -35.5624 H   0  0  0  0  0  0  0  0  0  0  0  0
   24.6616  105.8585  -35.1416 H   0  0  0  0  0  0  0  0  0  0  0  0
   26.7935  109.6147  -32.6262 H   0  0  0  0  0  0  0  0  0  0  0  0
   26.9234  108.5667  -34.0793 H   0  0  0  0  0  0  0  0  0  0  0  0
   25.7978  109.9665  -34.0793 H   0  0  0  0  0  0  0  0  0  0  0  0
   28.5329  109.0149  -28.0164 H   0  0  0  0  0  0  0  0  0  0  0  0
   28.8712  108.1621  -29.5608 H   0  0  0  0  0  0  0  0  0  0  0  0
   27.8827  109.6620  -29.5608 H   0  0  0  0  0  0  0  0  0  0  0  0
   21.8680  109.1920  -34.5554 H   0  0  0  0  0  0  0  0  0  0  0  0
   23.1422  110.2831  -33.8961 H   0  0  0  0  0  0  0  0  0  0  0  0
   26.3987  110.6480  -29.7656 H   0  0  0  0  0  0  0  0  0  0  0  0
   23.1247  106.9864  -32.6844 H   0  0  0  0  0  0  0  0  0  0  0  0
   22.3595  111.5296  -35.4780 H   0  0  0  0  0  0  0  0  0  0  0  0
  1  2  1  0
  2  3  1  0
  3  4  1  0
  4  5  2  0
  5  6  1  0
  6  7  1  0
  7  8  1  0
  8  9  1  0
  1 10  1  0
  5 10  1  0
  9 10  1  0
  9 12  1  0
 11 12  1  0
 11 13  1  0
  8 14  1  0
 13 14  1  0
 14 15  1  0
 15 16  1  0
 13 17  1  0
 16 17  1  0
 13 18  1  6
 10 19  1  6
 17 20  1  0
 20 21  1  0
  3 22  2  0
 12 23  1  0
 17 24  1  1
 20 25  2  0
 21 26  1  0
  1 27  1  0
  1 28  1  0
  2 29  1  0
  2 30  1  0
  4 31  1  0
  6 32  1  0
  6 33  1  0
  7 34  1  0
  7 35  1  0
  8 36  1  6
  9 37  1  1
 11 38  1  0
 11 39  1  0
 12 40  1  1
 14 41  1  1
 15 42  1  0
 15 43  1  0
 16 44  1  0
 16 45  1  0
 18 46  1  0
 18 47  1  0
 18 48  1  0
 19 49  1  0
 19 50  1  0
 19 51  1  0
 21 52  1  0
 21 53  1  0
 23 54  1  0
 24 55  1  0
 26 56  1  0
M  END
$$$$
