PDB_DB01254_95
     RDKit          3D

 59 62  0  0  0  0  0  0  0  0999 V2000
   31.2900   24.1120   -2.3480 C   0  0  0  0  0  0  0  0  0  0  0  0
   31.4430   22.7400   -1.9990 C   0  0  0  0  0  0  0  0  0  0  0  0
   32.3510   22.0170   -1.0300 C   0  0  0  0  0  0  0  0  0  0  0  0
   23.7970   21.0210   -9.6040 N   0  0  0  0  0  0  0  0  0  0  0  0
   35.8010   21.2030    2.4460 C   0  0  0  0  0  0  0  0  0  0  0  0
   36.2220   21.3960    1.1310 C   0  0  0  0  0  0  0  0  0  0  0  0
   35.3890   22.0070    0.1890 C   0  0  0  0  0  0  0  0  0  0  0  0
   35.9280   22.2630   -1.1530 C   0  0  0  0  0  0  0  0  0  0  0  0
   28.3320   22.0500   -5.1290 C   0  0  0  0  0  0  0  0  0  0  0  0
   27.3530   22.2000   -6.1110 C   0  0  0  0  0  0  0  0  0  0  0  0
   26.6940   21.0670   -6.5770 C   0  0  0  0  0  0  0  0  0  0  0  0
   28.0160   19.7300   -5.1540 C   0  0  0  0  0  0  0  0  0  0  0  0
   28.3740   18.3830   -4.6700 C   0  0  0  0  0  0  0  0  0  0  0  0
   24.5650   20.1440   -7.4170 C   0  0  0  0  0  0  0  0  0  0  0  0
   25.0540   22.4150   -7.8380 C   0  0  0  0  0  0  0  0  0  0  0  0
   24.1170   20.7160  -11.0100 C   0  0  0  0  0  0  0  0  0  0  0  0
   23.5750   21.7890  -11.9370 C   0  0  0  0  0  0  0  0  0  0  0  0
   28.8940   23.1650   -4.6690 N   0  0  0  0  0  0  0  0  0  0  0  0
   29.8230   23.1730   -3.6990 C   0  0  0  0  0  0  0  0  0  0  0  0
   30.3340   24.3410   -3.3090 N   0  0  0  0  0  0  0  0  0  0  0  0
   30.3820   21.7530   -2.9150 S   0  0  0  0  0  0  0  0  0  0  0  0
   33.0760   22.8550   -0.2770 N   0  0  0  0  0  0  0  0  0  0  0  0
   34.0180   22.4750    0.5970 C   0  0  0  0  0  0  0  0  0  0  0  0
   33.6100   22.1570    1.9850 C   0  0  0  0  0  0  0  0  0  0  0  0
   34.5060   21.5360    2.8570 C   0  0  0  0  0  0  0  0  0  0  0  0
   31.9770   22.6340    2.5180 Cl  0  0  0  0  0  0  0  0  0  0  0  0
   32.4160   20.8140   -1.0390 O   0  0  0  0  0  0  0  0  0  0  0  0
   27.0620   19.8490   -6.1090 N   0  0  0  0  0  0  0  0  0  0  0  0
   28.6700   20.8180   -4.6480 N   0  0  0  0  0  0  0  0  0  0  0  0
   25.6790   21.1190   -7.5630 N   0  0  0  0  0  0  0  0  0  0  0  0
   24.2630   19.8180   -8.8560 C   0  0  0  0  0  0  0  0  0  0  0  0
   24.3820   22.3380   -9.2210 C   0  0  0  0  0  0  0  0  0  0  0  0
   24.7250   22.3200  -12.6260 O   0  0  0  0  0  0  0  0  0  0  0  0
   31.8837   24.9167   -1.8897 H   0  0  0  0  0  0  0  0  0  0  0  0
   36.5040   20.7787    3.1779 H   0  0  0  0  0  0  0  0  0  0  0  0
   37.2259   21.0621    0.8297 H   0  0  0  0  0  0  0  0  0  0  0  0
   36.9186   22.7335   -1.0667 H   0  0  0  0  0  0  0  0  0  0  0  0
   36.0199   21.3123   -1.6987 H   0  0  0  0  0  0  0  0  0  0  0  0
   35.2492   22.9349   -1.6987 H   0  0  0  0  0  0  0  0  0  0  0  0
   27.1067   23.1953   -6.5094 H   0  0  0  0  0  0  0  0  0  0  0  0
   28.3756   18.3770   -3.5700 H   0  0  0  0  0  0  0  0  0  0  0  0
   27.6387   17.6531   -5.0396 H   0  0  0  0  0  0  0  0  0  0  0  0
   29.3747   18.1145   -5.0396 H   0  0  0  0  0  0  0  0  0  0  0  0
   24.8833   19.2502   -6.8605 H   0  0  0  0  0  0  0  0  0  0  0  0
   23.7025   20.5287   -6.8531 H   0  0  0  0  0  0  0  0  0  0  0  0
   24.2995   22.6358   -7.0686 H   0  0  0  0  0  0  0  0  0  0  0  0
   25.8107   23.2133   -7.8259 H   0  0  0  0  0  0  0  0  0  0  0  0
   25.2094   20.6589  -11.1259 H   0  0  0  0  0  0  0  0  0  0  0  0
   23.6503   19.7558  -11.2750 H   0  0  0  0  0  0  0  0  0  0  0  0
   22.8641   21.3537  -12.6547 H   0  0  0  0  0  0  0  0  0  0  0  0
   23.0339   22.5708  -11.3838 H   0  0  0  0  0  0  0  0  0  0  0  0
   28.6026   24.0651   -5.0763 H   0  0  0  0  0  0  0  0  0  0  0  0
   32.8963   23.8643   -0.3771 H   0  0  0  0  0  0  0  0  0  0  0  0
   34.1884   21.3047    3.8844 H   0  0  0  0  0  0  0  0  0  0  0  0
   23.4771   19.0492   -8.8907 H   0  0  0  0  0  0  0  0  0  0  0  0
   25.1877   19.4552   -9.3285 H   0  0  0  0  0  0  0  0  0  0  0  0
   25.1387   22.5996   -9.9753 H   0  0  0  0  0  0  0  0  0  0  0  0
   23.5295   23.0313   -9.1695 H   0  0  0  0  0  0  0  0  0  0  0  0
   25.3931   22.6285  -11.9637 H   0  0  0  0  0  0  0  0  0  0  0  0
  1  2  2  0
  2  3  1  0
  5  6  2  0
  6  7  1  0
  7  8  1  0
  9 10  2  0
 10 11  1  0
 12 13  1  0
  4 16  1  0
 16 17  1  0
  9 18  1  0
 18 19  1  0
  1 20  1  0
 19 20  2  0
  2 21  1  0
 19 21  1  0
  3 22  1  0
  7 23  2  0
 22 23  1  0
 23 24  1  0
  5 25  1  0
 24 25  2  0
 24 26  1  0
  3 27  2  0
 11 28  2  0
 12 28  1  0
  9 29  1  0
 12 29  2  0
 11 30  1  0
 14 30  1  0
 15 30  1  0
  4 31  1  0
 14 31  1  0
  4 32  1  0
 15 32  1  0
 17 33  1  0
  1 34  1  0
  5 35  1  0
  6 36  1  0
  8 37  1  0
  8 38  1  0
  8 39  1  0
 10 40  1  0
 13 41  1  0
 13 42  1  0
 13 43  1  0
 14 44  1  0
 14 45  1  0
 15 46  1  0
 15 47  1  0
 16 48  1  0
 16 49  1  0
 17 50  1  0
 17 51  1  0
 18 52  1  0
 22 53  1  0
 25 54  1  0
 31 55  1  0
 31 56  1  0
 32 57  1  0
 32 58  1  0
 33 59  1  0
M  END
$$$$
