PDB_DB04876_98
     RDKit          3D

 47 50  0  0  0  0  0  0  0  0999 V2000
   -1.9970   62.8110   35.5110 O   0  0  0  0  0  0  0  0  0  0  0  0
   -2.2770   63.8430   36.1280 C   0  0  0  0  0  0  0  0  0  0  0  0
   -1.6980   64.1850   37.3320 N   0  0  0  0  0  0  0  0  0  0  0  0
   -2.0030   65.4050   38.0680 C   0  0  0  0  0  0  0  0  0  0  0  0
   -0.9600   65.4490   39.1920 C   0  0  0  0  0  0  0  0  0  0  0  0
    0.1240   64.4710   38.7460 C   0  0  0  0  0  0  0  0  0  0  0  0
   -0.6380   63.3990   37.9790 C   0  0  1  0  0  0  0  0  0  0  0  0
   -1.1870   62.2440   38.7840 C   0  0  0  0  0  0  0  0  0  0  0  0
   -2.2480   62.2520   39.4880 N   0  0  0  0  0  0  0  0  0  0  0  0
   -3.2940   64.8570   35.6040 C   0  0  0  0  0  0  0  0  0  0  0  0
   -3.9690   64.3800   34.3500 N   0  0  0  0  0  0  0  0  0  0  0  0
   -5.2750   63.6630   34.5780 C   0  0  1  0  0  0  0  0  0  0  0  0
   -5.1490   62.5930   35.6760 C   0  0  0  0  0  0  0  0  0  0  0  0
   -6.5250   61.9230   35.8860 C   0  0  1  0  0  0  0  0  0  0  0  0
   -7.5720   63.0050   36.2290 C   0  0  0  0  0  0  0  0  0  0  0  0
   -7.7170   64.0190   35.0790 C   0  0  1  0  0  0  0  0  0  0  0  0
   -6.3400   64.7080   34.9270 C   0  0  0  0  0  0  0  0  0  0  0  0
   -8.0840   63.2720   33.7880 C   0  0  0  0  0  0  0  0  0  0  0  0
   -6.8910   61.2010   34.5790 C   0  0  0  0  0  0  0  0  0  0  0  0
   -7.0010   62.2300   33.4440 C   0  0  1  0  0  0  0  0  0  0  0  0
   -7.3140   61.5530   32.2350 O   0  0  0  0  0  0  0  0  0  0  0  0
   -5.6640   62.9520   33.2640 C   0  0  0  0  0  0  0  0  0  0  0  0
   -1.9088   66.2859   37.4159 H   0  0  0  0  0  0  0  0  0  0  0  0
   -3.0331   65.4133   38.4538 H   0  0  0  0  0  0  0  0  0  0  0  0
   -0.5479   66.4631   39.3006 H   0  0  0  0  0  0  0  0  0  0  0  0
   -1.3874   65.1823   40.1699 H   0  0  0  0  0  0  0  0  0  0  0  0
    0.8571   64.9703   38.0955 H   0  0  0  0  0  0  0  0  0  0  0  0
    0.6964   64.0602   39.5908 H   0  0  0  0  0  0  0  0  0  0  0  0
    0.0311   62.8553   37.2959 H   0  0  0  0  0  0  0  0  0  0  0  0
   -4.0584   65.0252   36.3769 H   0  0  0  0  0  0  0  0  0  0  0  0
   -2.7559   65.7869   35.3677 H   0  0  0  0  0  0  0  0  0  0  0  0
   -4.1513   65.1982   33.7514 H   0  0  0  0  0  0  0  0  0  0  0  0
   -4.4128   61.8352   35.3697 H   0  0  0  0  0  0  0  0  0  0  0  0
   -4.8166   63.0609   36.6144 H   0  0  0  0  0  0  0  0  0  0  0  0
   -6.4975   61.2012   36.7156 H   0  0  0  0  0  0  0  0  0  0  0  0
   -8.5439   62.5213   36.4064 H   0  0  0  0  0  0  0  0  0  0  0  0
   -7.2380   63.5421   37.1290 H   0  0  0  0  0  0  0  0  0  0  0  0
   -8.5053   64.7589   35.2821 H   0  0  0  0  0  0  0  0  0  0  0  0
   -6.0718   65.2016   35.8727 H   0  0  0  0  0  0  0  0  0  0  0  0
   -6.3939   65.4559   34.1222 H   0  0  0  0  0  0  0  0  0  0  0  0
   -9.0480   62.7607   33.9266 H   0  0  0  0  0  0  0  0  0  0  0  0
   -8.1560   63.9973   32.9641 H   0  0  0  0  0  0  0  0  0  0  0  0
   -6.1101   60.4660   34.3342 H   0  0  0  0  0  0  0  0  0  0  0  0
   -7.8537   60.6831   34.7013 H   0  0  0  0  0  0  0  0  0  0  0  0
   -7.7201   60.6747   32.4442 H   0  0  0  0  0  0  0  0  0  0  0  0
   -5.7558   63.6961   32.4591 H   0  0  0  0  0  0  0  0  0  0  0  0
   -4.8866   62.2189   33.0028 H   0  0  0  0  0  0  0  0  0  0  0  0
  1  2  2  0
  2  3  1  0
  3  4  1  0
  4  5  1  0
  5  6  1  0
  3  7  1  0
  6  7  1  0
  7  8  1  0
  8  9  3  0
  2 10  1  0
 10 11  1  0
 12 11  1  1
 12 13  1  0
 13 14  1  0
 14 15  1  0
 15 16  1  0
 12 17  1  0
 16 17  1  0
 16 18  1  0
 14 19  1  0
 18 20  1  0
 19 20  1  0
 20 21  1  6
 12 22  1  0
 20 22  1  0
  4 23  1  0
  4 24  1  0
  5 25  1  0
  5 26  1  0
  6 27  1  0
  6 28  1  0
  7 29  1  6
 10 30  1  0
 10 31  1  0
 11 32  1  0
 13 33  1  0
 13 34  1  0
 14 35  1  1
 15 36  1  0
 15 37  1  0
 16 38  1  1
 17 39  1  0
 17 40  1  0
 18 41  1  0
 18 42  1  0
 19 43  1  0
 19 44  1  0
 21 45  1  0
 22 46  1  0
 22 47  1  0
M  END
$$$$
