PDB_DB00951_98
     RDKit          3D

 17 17  0  0  0  0  0  0  0  0999 V2000
  -10.1900  -62.2670  -35.2300 C   0  0  0  0  0  0  0  0  0  0  0  0
   -9.0420  -62.7060  -34.3390 C   0  0  0  0  0  0  0  0  0  0  0  0
   -6.7390  -63.3920  -32.8490 N   0  0  0  0  0  0  0  0  0  0  0  0
  -10.0360  -61.2670  -35.8340 O   0  0  0  0  0  0  0  0  0  0  0  0
   -8.9680  -64.0390  -33.6950 C   0  0  0  0  0  0  0  0  0  0  0  0
  -11.3790  -63.0130  -35.2590 N   0  0  0  0  0  0  0  0  0  0  0  0
   -7.8480  -64.3220  -32.9160 C   0  0  0  0  0  0  0  0  0  0  0  0
  -12.3560  -62.8500  -36.2520 N   0  0  0  0  0  0  0  0  0  0  0  0
   -6.8260  -62.1030  -33.4500 C   0  0  0  0  0  0  0  0  0  0  0  0
   -7.9380  -61.7840  -34.2530 C   0  0  0  0  0  0  0  0  0  0  0  0
   -9.7702  -64.7798  -33.8276 H   0  0  0  0  0  0  0  0  0  0  0  0
  -11.5409  -63.7105  -34.5186 H   0  0  0  0  0  0  0  0  0  0  0  0
   -7.8053  -65.2616  -32.3457 H   0  0  0  0  0  0  0  0  0  0  0  0
  -13.2733  -62.6970  -35.8093 H   0  0  0  0  0  0  0  0  0  0  0  0
  -12.1177  -62.0371  -36.8380 H   0  0  0  0  0  0  0  0  0  0  0  0
   -6.0296  -61.3618  -33.2878 H   0  0  0  0  0  0  0  0  0  0  0  0
   -7.9637  -60.8366  -34.8113 H   0  0  0  0  0  0  0  0  0  0  0  0
  1  2  1  0
  1  4  2  0
  2  5  2  0
  1  6  1  0
  3  7  2  0
  5  7  1  0
  6  8  1  0
  3  9  1  0
  2 10  1  0
  9 10  2  0
  5 11  1  0
  6 12  1  0
  7 13  1  0
  8 14  1  0
  8 15  1  0
  9 16  1  0
 10 17  1  0
M  END
$$$$
