PDB_DB00140_95
     RDKit          3D

 47 49  0  0  0  0  0  0  0  0999 V2000
   -6.7580   14.9070    2.2490 N   0  0  0  0  0  0  0  0  0  0  0  0
   -7.8950   15.4590    1.7840 C   0  0  0  0  0  0  0  0  0  0  0  0
   -7.8670   16.2110    0.6740 O   0  0  0  0  0  0  0  0  0  0  0  0
   -9.0930   15.2550    2.4520 N   0  0  0  0  0  0  0  0  0  0  0  0
   -9.1190   14.4830    3.6030 C   0  0  0  0  0  0  0  0  0  0  0  0
  -10.2730   14.2840    4.2520 O   0  0  0  0  0  0  0  0  0  0  0  0
   -7.9310   13.9160    4.0820 C   0  0  0  0  0  0  0  0  0  0  0  0
   -7.9090   13.1620    5.1950 N   0  0  0  0  0  0  0  0  0  0  0  0
   -6.7770   12.6070    5.6650 C   0  0  0  0  0  0  0  0  0  0  0  0
   -6.8130   11.8320    6.8320 C   0  0  0  0  0  0  0  0  0  0  0  0
   -5.6370   11.2530    7.3250 C   0  0  0  0  0  0  0  0  0  0  0  0
   -5.6770   10.4210    8.5840 C   0  0  0  0  0  0  0  0  0  0  0  0
   -4.4230   11.4460    6.6510 C   0  0  0  0  0  0  0  0  0  0  0  0
   -3.1560   10.8250    7.1880 C   0  0  0  0  0  0  0  0  0  0  0  0
   -4.3830   12.2220    5.4830 C   0  0  0  0  0  0  0  0  0  0  0  0
   -5.5590   12.8060    4.9870 C   0  0  0  0  0  0  0  0  0  0  0  0
   -5.5510   13.5860    3.8270 N   0  0  0  0  0  0  0  0  0  0  0  0
   -6.7420   14.1490    3.3650 C   0  0  0  0  0  0  0  0  0  0  0  0
   -4.2950   13.8130    3.0870 C   0  0  0  0  0  0  0  0  0  0  0  0
   -3.2600   14.4740    4.0000 C   0  0  2  0  0  0  0  0  0  0  0  0
   -3.8890   14.8970    5.2120 O   0  0  0  0  0  0  0  0  0  0  0  0
   -2.6470   15.6810    3.2910 C   0  0  2  0  0  0  0  0  0  0  0  0
   -3.6830   16.4430    2.6660 O   0  0  0  0  0  0  0  0  0  0  0  0
   -1.6580   15.1990    2.2320 C   0  0  2  0  0  0  0  0  0  0  0  0
   -0.6250   14.4330    2.8580 O   0  0  0  0  0  0  0  0  0  0  0  0
   -1.0390   16.4040    1.5250 C   0  0  0  0  0  0  0  0  0  0  0  0
   -0.3790   17.2330    2.4850 O   0  0  0  0  0  0  0  0  0  0  0  0
   -9.9619   15.6763    2.0936 H   0  0  0  0  0  0  0  0  0  0  0  0
   -7.7652   11.6784    7.3609 H   0  0  0  0  0  0  0  0  0  0  0  0
   -5.6452   11.0828    9.4620 H   0  0  0  0  0  0  0  0  0  0  0  0
   -6.6046    9.8301    8.6037 H   0  0  0  0  0  0  0  0  0  0  0  0
   -4.8104    9.7438    8.6037 H   0  0  0  0  0  0  0  0  0  0  0  0
   -3.1795   10.8365    8.2877 H   0  0  0  0  0  0  0  0  0  0  0  0
   -3.0780    9.7865    6.8338 H   0  0  0  0  0  0  0  0  0  0  0  0
   -2.2874   11.3995    6.8338 H   0  0  0  0  0  0  0  0  0  0  0  0
   -3.4295   12.3729    4.9556 H   0  0  0  0  0  0  0  0  0  0  0  0
   -3.9031   12.8489    2.7307 H   0  0  0  0  0  0  0  0  0  0  0  0
   -4.4954   14.4744    2.2312 H   0  0  0  0  0  0  0  0  0  0  0  0
   -2.4670   13.7491    4.2359 H   0  0  0  0  0  0  0  0  0  0  0  0
   -3.3775   14.5530    5.9867 H   0  0  0  0  0  0  0  0  0  0  0  0
   -2.1214   16.3106    4.0240 H   0  0  0  0  0  0  0  0  0  0  0  0
   -4.2507   16.8606    3.3613 H   0  0  0  0  0  0  0  0  0  0  0  0
   -2.1855   14.5736    1.4968 H   0  0  0  0  0  0  0  0  0  0  0  0
   -0.7148   14.4996    3.8417 H   0  0  0  0  0  0  0  0  0  0  0  0
   -0.3101   16.0563    0.7781 H   0  0  0  0  0  0  0  0  0  0  0  0
   -1.8301   16.9814    1.0243 H   0  0  0  0  0  0  0  0  0  0  0  0
   -0.6170   16.9341    3.3983 H   0  0  0  0  0  0  0  0  0  0  0  0
  1  2  1  0
  2  3  2  0
  2  4  1  0
  4  5  1  0
  5  6  2  0
  5  7  1  0
  7  8  2  0
  8  9  1  0
  9 10  2  0
 10 11  1  0
 11 12  1  0
 11 13  2  0
 13 14  1  0
 13 15  1  0
  9 16  1  0
 15 16  2  0
 16 17  1  0
  1 18  2  0
  7 18  1  0
 17 18  1  0
 17 19  1  0
 19 20  1  0
 20 21  1  0
 20 22  1  0
 22 23  1  0
 22 24  1  0
 24 25  1  0
 24 26  1  0
 26 27  1  0
  4 28  1  0
 10 29  1  0
 12 30  1  0
 12 31  1  0
 12 32  1  0
 14 33  1  0
 14 34  1  0
 14 35  1  0
 15 36  1  0
 19 37  1  0
 19 38  1  0
 20 39  1  1
 21 40  1  0
 22 41  1  1
 23 42  1  0
 24 43  1  6
 25 44  1  0
 26 45  1  0
 26 46  1  0
 27 47  1  0
M  END
$$$$
