PDB_DB00722_97
     RDKit          3D

 60 61  0  0  0  0  0  0  0  0999 V2000
  -21.7770  -28.5000  -92.5650 O   0  0  0  0  0  0  0  0  0  0  0  0
  -22.1680  -26.3560  -92.3130 O   0  0  0  0  0  0  0  0  0  0  0  0
  -21.4860  -27.2700  -92.7740 C   0  0  0  0  0  0  0  0  0  0  0  0
  -20.2390  -26.8950  -93.5610 C   0  0  2  0  0  0  0  0  0  0  0  0
  -20.7440  -26.8870  -94.9200 C   0  0  0  0  0  0  0  0  0  0  0  0
  -20.8510  -25.5890  -95.6410 C   0  0  0  0  0  0  0  0  0  0  0  0
  -21.2850  -25.4950  -97.0340 C   0  0  0  0  0  0  0  0  0  0  0  0
  -20.4760  -26.1260  -98.0790 C   0  0  0  0  0  0  0  0  0  0  0  0
  -20.8730  -26.0140  -99.4580 C   0  0  0  0  0  0  0  0  0  0  0  0
  -22.0830  -25.2660  -99.8120 C   0  0  0  0  0  0  0  0  0  0  0  0
  -22.9000  -24.6340  -98.7640 C   0  0  0  0  0  0  0  0  0  0  0  0
  -22.4960  -24.7500  -97.3740 C   0  0  0  0  0  0  0  0  0  0  0  0
  -19.2930  -27.4700  -93.1760 N   0  0  0  0  0  0  0  0  0  0  0  0
  -12.6590  -28.9080  -91.6020 N   0  0  0  0  0  0  0  0  0  0  0  0
  -18.2540  -26.0450  -91.4330 C   0  0  0  0  0  0  0  0  0  0  0  0
  -18.7120  -27.5190  -91.8250 C   0  0  2  0  0  0  0  0  0  0  0  0
  -17.8880  -25.2280  -92.3500 O   0  0  0  0  0  0  0  0  0  0  0  0
  -17.5100  -28.4200  -91.7920 C   0  0  0  0  0  0  0  0  0  0  0  0
  -16.2620  -28.0660  -92.4230 C   0  0  0  0  0  0  0  0  0  0  0  0
  -15.0100  -28.6490  -91.6970 C   0  0  0  0  0  0  0  0  0  0  0  0
  -13.8010  -28.3110  -92.3430 C   0  0  0  0  0  0  0  0  0  0  0  0
  -15.9310  -22.8670  -90.0900 O   0  0  0  0  0  0  0  0  0  0  0  0
  -15.4970  -25.0370  -90.0840 O   0  0  0  0  0  0  0  0  0  0  0  0
  -18.2540  -25.6890  -90.1160 N   0  0  0  0  0  0  0  0  0  0  0  0
  -17.8040  -24.3130  -89.6470 C   0  0  1  0  0  0  0  0  0  0  0  0
  -18.0150  -24.4470  -88.1180 C   0  0  0  0  0  0  0  0  0  0  0  0
  -18.4880  -25.6910  -87.7990 C   0  0  0  0  0  0  0  0  0  0  0  0
  -18.6690  -26.5480  -88.9660 C   0  0  0  0  0  0  0  0  0  0  0  0
  -16.2570  -24.1070  -89.9670 C   0  0  0  0  0  0  0  0  0  0  0  0
  -21.2098  -29.2150  -92.9487 H   0  0  0  0  0  0  0  0  0  0  0  0
  -19.7555  -25.9146  -93.4382 H   0  0  0  0  0  0  0  0  0  0  0  0
  -20.0808  -27.5326  -95.5145 H   0  0  0  0  0  0  0  0  0  0  0  0
  -21.7876  -27.2188  -94.8163 H   0  0  0  0  0  0  0  0  0  0  0  0
  -21.5547  -24.9746  -95.0602 H   0  0  0  0  0  0  0  0  0  0  0  0
  -19.7963  -25.2851  -95.7136 H   0  0  0  0  0  0  0  0  0  0  0  0
  -19.5670  -26.6843  -97.8107 H   0  0  0  0  0  0  0  0  0  0  0  0
  -20.2692  -26.4891 -100.2452 H   0  0  0  0  0  0  0  0  0  0  0  0
  -22.3818  -25.1767 -100.8669 H   0  0  0  0  0  0  0  0  0  0  0  0
  -23.8104  -24.0776  -99.0316 H   0  0  0  0  0  0  0  0  0  0  0  0
  -23.0975  -24.2802  -96.5818 H   0  0  0  0  0  0  0  0  0  0  0  0
  -19.4847  -28.4557  -93.4054 H   0  0  0  0  0  0  0  0  0  0  0  0
  -12.8242  -28.8216  -90.5890 H   0  0  0  0  0  0  0  0  0  0  0  0
  -12.5703  -29.9033  -91.8518 H   0  0  0  0  0  0  0  0  0  0  0  0
  -19.4623  -27.9081  -91.1210 H   0  0  0  0  0  0  0  0  0  0  0  0
  -17.2798  -28.5844  -90.7290 H   0  0  0  0  0  0  0  0  0  0  0  0
  -17.8442  -29.2669  -92.4093 H   0  0  0  0  0  0  0  0  0  0  0  0
  -16.2739  -28.4455  -93.4554 H   0  0  0  0  0  0  0  0  0  0  0  0
  -16.1784  -26.9699  -92.3823 H   0  0  0  0  0  0  0  0  0  0  0  0
  -14.9829  -28.2550  -90.6703 H   0  0  0  0  0  0  0  0  0  0  0  0
  -15.0987  -29.7454  -91.7088 H   0  0  0  0  0  0  0  0  0  0  0  0
  -13.6912  -27.2167  -92.3661 H   0  0  0  0  0  0  0  0  0  0  0  0
  -13.8139  -28.7002  -93.3718 H   0  0  0  0  0  0  0  0  0  0  0  0
  -16.6166  -22.1615  -89.9785 H   0  0  0  0  0  0  0  0  0  0  0  0
  -18.3321  -23.4692  -90.1151 H   0  0  0  0  0  0  0  0  0  0  0  0
  -17.0551  -24.2841  -87.6060 H   0  0  0  0  0  0  0  0  0  0  0  0
  -18.7527  -23.6968  -87.7972 H   0  0  0  0  0  0  0  0  0  0  0  0
  -17.7727  -26.1738  -87.1169 H   0  0  0  0  0  0  0  0  0  0  0  0
  -19.4749  -25.5582  -87.3317 H   0  0  0  0  0  0  0  0  0  0  0  0
  -19.7208  -26.8539  -89.0666 H   0  0  0  0  0  0  0  0  0  0  0  0
  -18.0856  -27.4783  -88.9015 H   0  0  0  0  0  0  0  0  0  0  0  0
  1  3  1  0
  3  2  2  0
  3  4  1  0
  4  5  1  0
  5  6  1  0
  6  7  1  0
  7  8  2  0
  8  9  1  0
  9 10  2  0
 10 11  1  0
  7 12  1  0
 11 12  2  0
  4 13  1  0
 13 16  1  0
 15 16  1  0
 15 17  2  0
 16 18  1  0
 18 19  1  0
 19 20  1  0
 14 21  1  0
 20 21  1  0
 15 24  1  0
 24 25  1  0
 25 26  1  0
 26 27  1  0
 24 28  1  0
 27 28  1  0
 22 29  1  0
 23 29  2  0
 25 29  1  0
  1 30  1  0
  4 31  1  1
  5 32  1  0
  5 33  1  0
  6 34  1  0
  6 35  1  0
  8 36  1  0
  9 37  1  0
 10 38  1  0
 11 39  1  0
 12 40  1  0
 13 41  1  0
 14 42  1  0
 14 43  1  0
 16 44  1  1
 18 45  1  0
 18 46  1  0
 19 47  1  0
 19 48  1  0
 20 49  1  0
 20 50  1  0
 21 51  1  0
 21 52  1  0
 22 53  1  0
 25 54  1  6
 26 55  1  0
 26 56  1  0
 27 57  1  0
 27 58  1  0
 28 59  1  0
 28 60  1  0
M  END
$$$$
