PDB_DB06290_96
     RDKit          3D

 99105  0  0  0  0  0  0  0  0999 V2000
  -30.4910   -2.9300  -25.5110 C   0  0  0  0  0  0  0  0  0  0  0  0
  -28.9800   -2.9210  -25.3170 C   0  0  2  0  0  0  0  0  0  0  0  0
  -28.5570   -4.3530  -25.6320 C   0  0  1  0  0  0  0  0  0  0  0  0
  -29.4120   -4.7060  -26.8410 C   0  0  0  0  0  0  0  0  0  0  0  0
  -30.7550   -4.0420  -26.5240 C   0  0  1  0  0  0  0  0  0  0  0  0
  -27.0250   -4.5250  -25.6230 C   0  0  0  0  0  0  0  0  0  0  0  0
  -26.2480   -3.7220  -26.1080 O   0  0  0  0  0  0  0  0  0  0  0  0
  -26.6340   -5.6230  -24.9690 N   0  0  0  0  0  0  0  0  0  0  0  0
  -28.4560   -2.5150  -23.9310 C   0  0  0  0  0  0  0  0  0  0  0  0
  -28.3030   -3.3820  -23.0600 O   0  0  0  0  0  0  0  0  0  0  0  0
  -25.0790   -5.5010  -23.2340 C   0  0  1  0  0  0  0  0  0  0  0  0
  -24.1230   -6.1250  -25.6660 C   0  0  0  0  0  0  0  0  0  0  0  0
  -28.1470   -1.1970  -23.7750 N   0  0  0  0  0  0  0  0  0  0  0  0
  -27.5800   -0.6710  -22.5350 C   0  0  0  0  0  0  0  0  0  0  0  0
  -28.3130   -0.1900  -24.8300 C   0  0  0  0  0  0  0  0  0  0  0  0
  -25.2890   -6.1000  -24.6470 C   0  0  2  0  0  0  0  0  0  0  0  0
  -25.1010   -7.0150  -23.4380 C   0  0  0  0  0  0  0  0  0  0  0  0
  -23.7300   -4.8560  -22.9020 C   0  0  0  0  0  0  0  0  0  0  0  0
  -26.0720   -0.4570  -22.8220 C   0  0  0  0  0  0  0  0  0  0  0  0
  -25.1970   -1.6560  -23.2400 C   0  0  0  0  0  0  0  0  0  0  0  0
  -24.8680   -2.6790  -22.1340 C   0  0  0  0  0  0  0  0  0  0  0  0
  -23.6550   -3.5980  -22.4200 C   0  0  0  0  0  0  0  0  0  0  0  0
  -31.6710   -4.9630  -25.9190 O   0  0  0  0  0  0  0  0  0  0  0  0
  -35.2720   -8.1580  -24.5760 C   0  0  0  0  0  0  0  0  0  0  0  0
  -34.4090   -7.3480  -23.8340 C   0  0  0  0  0  0  0  0  0  0  0  0
  -33.5070   -6.5520  -24.5480 C   0  0  0  0  0  0  0  0  0  0  0  0
  -33.4670   -6.5630  -25.9570 C   0  0  0  0  0  0  0  0  0  0  0  0
  -34.3500   -7.3620  -26.6800 C   0  0  0  0  0  0  0  0  0  0  0  0
  -35.2470   -8.1760  -25.9960 C   0  0  0  0  0  0  0  0  0  0  0  0
  -32.5470   -5.7680  -26.6390 C   0  0  0  0  0  0  0  0  0  0  0  0
  -32.5460   -5.7580  -28.0320 C   0  0  0  0  0  0  0  0  0  0  0  0
  -33.4270   -6.5770  -28.7030 C   0  0  0  0  0  0  0  0  0  0  0  0
  -34.3160   -7.3550  -28.0560 N   0  0  0  0  0  0  0  0  0  0  0  0
  -33.3920   -6.4900  -30.1660 C   0  0  0  0  0  0  0  0  0  0  0  0
  -34.3420   -7.6330  -31.1290 S   0  0  0  0  0  0  0  0  0  0  0  0
  -33.8710   -6.8200  -32.6700 C   0  0  0  0  0  0  0  0  0  0  0  0
  -33.0490   -5.7490  -32.3040 C   0  0  0  0  0  0  0  0  0  0  0  0
  -32.8370   -5.5880  -30.9650 N   0  0  0  0  0  0  0  0  0  0  0  0
  -32.4840   -4.8780  -33.3900 C   0  0  0  0  0  0  0  0  0  0  0  0
  -33.3180   -3.6000  -33.3990 C   0  0  0  0  0  0  0  0  0  0  0  0
  -32.4870   -5.4700  -34.8080 C   0  0  0  0  0  0  0  0  0  0  0  0
  -36.1890   -8.9680  -23.8500 O   0  0  0  0  0  0  0  0  0  0  0  0
  -36.4480   -8.7380  -22.4520 C   0  0  0  0  0  0  0  0  0  0  0  0
  -36.2020   -9.0320  -26.8440 C   0  0  0  0  0  0  0  0  0  0  0  0
  -24.3510   -6.1110  -26.9980 N   0  0  0  0  0  0  0  0  0  0  0  0
  -22.9900   -6.2110  -25.2470 O   0  0  0  0  0  0  0  0  0  0  0  0
  -23.1820   -6.1510  -28.0260 S   0  0  0  0  0  0  0  0  0  0  0  0
  -23.7050   -5.8650  -29.6130 C   0  0  0  0  0  0  0  0  0  0  0  0
  -22.2340   -5.1400  -27.6730 O   0  0  0  0  0  0  0  0  0  0  0  0
  -22.4920   -7.4110  -27.8970 O   0  0  0  0  0  0  0  0  0  0  0  0
  -24.0730   -7.1420  -30.3610 C   0  0  0  0  0  0  0  0  0  0  0  0
  -22.7700   -6.4290  -30.6990 C   0  0  0  0  0  0  0  0  0  0  0  0
  -31.0012   -3.1444  -24.5604 H   0  0  0  0  0  0  0  0  0  0  0  0
  -30.8678   -1.9570  -25.8593 H   0  0  0  0  0  0  0  0  0  0  0  0
  -28.5527   -2.1433  -25.9670 H   0  0  0  0  0  0  0  0  0  0  0  0
  -28.7583   -5.1261  -24.8758 H   0  0  0  0  0  0  0  0  0  0  0  0
  -28.9775   -4.2964  -27.7648 H   0  0  0  0  0  0  0  0  0  0  0  0
  -29.4952   -5.7898  -27.0095 H   0  0  0  0  0  0  0  0  0  0  0  0
  -31.1934   -3.6702  -27.4619 H   0  0  0  0  0  0  0  0  0  0  0  0
  -27.3997   -6.2283  -24.6401 H   0  0  0  0  0  0  0  0  0  0  0  0
  -25.6290   -4.7811  -22.6101 H   0  0  0  0  0  0  0  0  0  0  0  0
  -28.0589    0.2827  -22.2684 H   0  0  0  0  0  0  0  0  0  0  0  0
  -27.7395   -1.3588  -21.6915 H   0  0  0  0  0  0  0  0  0  0  0  0
  -28.4757    0.7970  -24.3725 H   0  0  0  0  0  0  0  0  0  0  0  0
  -27.4077   -0.1601  -25.4541 H   0  0  0  0  0  0  0  0  0  0  0  0
  -29.1800   -0.4523  -25.4541 H   0  0  0  0  0  0  0  0  0  0  0  0
  -24.1729   -7.5955  -23.3299 H   0  0  0  0  0  0  0  0  0  0  0  0
  -25.6754   -7.8450  -23.0008 H   0  0  0  0  0  0  0  0  0  0  0  0
  -22.8046   -5.4294  -23.0595 H   0  0  0  0  0  0  0  0  0  0  0  0
  -26.0032    0.2856  -23.6306 H   0  0  0  0  0  0  0  0  0  0  0  0
  -25.6626   -0.1699  -21.8422 H   0  0  0  0  0  0  0  0  0  0  0  0
  -25.7226   -2.1901  -24.0452 H   0  0  0  0  0  0  0  0  0  0  0  0
  -24.2301   -1.2243  -23.5378 H   0  0  0  0  0  0  0  0  0  0  0  0
  -24.6617   -2.1229  -21.2076 H   0  0  0  0  0  0  0  0  0  0  0  0
  -25.7422   -3.3431  -22.0651 H   0  0  0  0  0  0  0  0  0  0  0  0
  -22.6531   -3.1933  -22.2140 H   0  0  0  0  0  0  0  0  0  0  0  0
  -34.4375   -7.3366  -22.7344 H   0  0  0  0  0  0  0  0  0  0  0  0
  -32.8121   -5.9017  -23.9965 H   0  0  0  0  0  0  0  0  0  0  0  0
  -31.8537   -5.1074  -28.5864 H   0  0  0  0  0  0  0  0  0  0  0  0
  -34.1694   -7.1079  -33.6889 H   0  0  0  0  0  0  0  0  0  0  0  0
  -31.4199   -4.7312  -33.1530 H   0  0  0  0  0  0  0  0  0  0  0  0
  -33.5217   -3.2878  -32.3641 H   0  0  0  0  0  0  0  0  0  0  0  0
  -32.7646   -2.8047  -33.9197 H   0  0  0  0  0  0  0  0  0  0  0  0
  -34.2689   -3.7863  -33.9197 H   0  0  0  0  0  0  0  0  0  0  0  0
  -32.4926   -6.5683  -34.7468 H   0  0  0  0  0  0  0  0  0  0  0  0
  -33.3834   -5.1282  -35.3461 H   0  0  0  0  0  0  0  0  0  0  0  0
  -31.5872   -5.1373  -35.3461 H   0  0  0  0  0  0  0  0  0  0  0  0
  -35.7612   -9.3479  -21.8467 H   0  0  0  0  0  0  0  0  0  0  0  0
  -36.2939   -7.6737  -22.2208 H   0  0  0  0  0  0  0  0  0  0  0  0
  -37.4867   -9.0168  -22.2208 H   0  0  0  0  0  0  0  0  0  0  0  0
  -36.8557   -9.6179  -26.1812 H   0  0  0  0  0  0  0  0  0  0  0  0
  -36.8163   -8.3764  -27.4788 H   0  0  0  0  0  0  0  0  0  0  0  0
  -35.6173   -9.7141  -27.4788 H   0  0  0  0  0  0  0  0  0  0  0  0
  -25.3213   -6.0730  -27.3415 H   0  0  0  0  0  0  0  0  0  0  0  0
  -24.1833   -4.8917  -29.4289 H   0  0  0  0  0  0  0  0  0  0  0  0
  -24.0487   -8.1096  -29.8384 H   0  0  0  0  0  0  0  0  0  0  0  0
  -24.9463   -7.4743  -30.9415 H   0  0  0  0  0  0  0  0  0  0  0  0
  -22.6624   -5.9044  -31.6599 H   0  0  0  0  0  0  0  0  0  0  0  0
  -21.7101   -6.7203  -30.7406 H   0  0  0  0  0  0  0  0  0  0  0  0
  1  2  1  0
  2  3  1  0
  3  4  1  0
  1  5  1  0
  4  5  1  0
  3  6  1  0
  6  7  2  0
  6  8  1  0
  2  9  1  0
  9 10  2  0
  9 13  1  0
 13 14  1  0
 13 15  1  0
  8 16  1  0
 11 16  1  0
 16 12  1  6
 11 17  1  0
 16 17  1  0
 11 18  1  0
 14 19  1  0
 19 20  1  0
 20 21  1  0
 18 22  2  0
 21 22  1  0
  5 23  1  0
 24 25  2  0
 25 26  1  0
 26 27  2  0
 27 28  1  0
 24 29  1  0
 28 29  2  0
 23 30  1  0
 27 30  1  0
 30 31  2  0
 31 32  1  0
 28 33  1  0
 32 33  2  0
 32 34  1  0
 34 35  1  0
 35 36  1  0
 36 37  2  0
 34 38  2  0
 37 38  1  0
 37 39  1  0
 39 40  1  0
 39 41  1  0
 24 42  1  0
 42 43  1  0
 29 44  1  0
 12 45  1  0
 12 46  2  0
 45 47  1  0
 47 48  1  0
 47 49  2  0
 47 50  2  0
 48 51  1  0
 48 52  1  0
 51 52  1  0
  1 53  1  0
  1 54  1  0
  2 55  1  6
  3 56  1  1
  4 57  1  0
  4 58  1  0
  5 59  1  6
  8 60  1  0
 11 61  1  1
 14 62  1  0
 14 63  1  0
 15 64  1  0
 15 65  1  0
 15 66  1  0
 17 67  1  0
 17 68  1  0
 18 69  1  0
 19 70  1  0
 19 71  1  0
 20 72  1  0
 20 73  1  0
 21 74  1  0
 21 75  1  0
 22 76  1  0
 25 77  1  0
 26 78  1  0
 31 79  1  0
 36 80  1  0
 39 81  1  0
 40 82  1  0
 40 83  1  0
 40 84  1  0
 41 85  1  0
 41 86  1  0
 41 87  1  0
 43 88  1  0
 43 89  1  0
 43 90  1  0
 44 91  1  0
 44 92  1  0
 44 93  1  0
 45 94  1  0
 48 95  1  0
 51 96  1  0
 51 97  1  0
 52 98  1  0
 52 99  1  0
M  END
$$$$
