PDB_DB00399_96
     RDKit          3D

 26 26  0  0  0  0  0  0  0  0999 V2000
   28.9780   43.4940    5.0900 O   0  0  0  0  0  0  0  0  0  0  0  0
   29.5310   44.9490    4.6960 P   0  0  0  0  0  0  0  0  0  0  0  0
   28.9690   45.3700    3.2410 O   0  0  0  0  0  0  0  0  0  0  0  0
   31.0030   45.0270    4.8460 O   0  0  0  0  0  0  0  0  0  0  0  0
   28.6380   46.1140    5.8410 C   0  0  0  0  0  0  0  0  0  0  0  0
   26.8200   45.7440    5.6160 P   0  0  0  0  0  0  0  0  0  0  0  0
   26.5750   44.2930    6.2630 O   0  0  0  0  0  0  0  0  0  0  0  0
   26.0330   46.8350    6.4970 O   0  0  0  0  0  0  0  0  0  0  0  0
   26.4830   45.7670    4.1690 O   0  0  0  0  0  0  0  0  0  0  0  0
   28.9140   47.4520    5.4150 O   0  0  0  0  0  0  0  0  0  0  0  0
   29.1060   45.8650    7.2780 C   0  0  0  0  0  0  0  0  0  0  0  0
   28.4500   46.7580    8.2490 N   0  0  0  0  0  0  0  0  0  0  0  0
   28.3730   48.0790    8.1550 C   0  0  0  0  0  0  0  0  0  0  0  0
   27.7660   48.4950    9.2680 N   0  0  0  0  0  0  0  0  0  0  0  0
   27.4810   47.4440   10.0340 C   0  0  0  0  0  0  0  0  0  0  0  0
   27.9080   46.3560    9.3960 C   0  0  0  0  0  0  0  0  0  0  0  0
   28.9457   43.4091    6.0758 H   0  0  0  0  0  0  0  0  0  0  0  0
   28.1814   45.9600    3.3495 H   0  0  0  0  0  0  0  0  0  0  0  0
   26.5873   44.3656    7.2503 H   0  0  0  0  0  0  0  0  0  0  0  0
   26.1707   46.6442    7.4586 H   0  0  0  0  0  0  0  0  0  0  0  0
   29.0338   48.0327    6.2078 H   0  0  0  0  0  0  0  0  0  0  0  0
   28.8782   44.8231    7.5474 H   0  0  0  0  0  0  0  0  0  0  0  0
   30.1867   46.0664    7.3166 H   0  0  0  0  0  0  0  0  0  0  0  0
   28.7363   48.7050    7.3267 H   0  0  0  0  0  0  0  0  0  0  0  0
   26.9836   47.4697   11.0148 H   0  0  0  0  0  0  0  0  0  0  0  0
   27.8277   45.3180    9.7510 H   0  0  0  0  0  0  0  0  0  0  0  0
  1  2  1  0
  2  3  1  0
  2  4  2  0
  2  5  1  0
  5  6  1  0
  6  7  1  0
  6  8  1  0
  6  9  2  0
  5 10  1  0
  5 11  1  0
 11 12  1  0
 12 13  1  0
 13 14  2  0
 14 15  1  0
 12 16  1  0
 15 16  2  0
  1 17  1  0
  3 18  1  0
  7 19  1  0
  8 20  1  0
 10 21  1  0
 11 22  1  0
 11 23  1  0
 13 24  1  0
 15 25  1  0
 16 26  1  0
M  END
$$$$
