PDB_DB00218_90
     RDKit          3D

 53 57  0  0  0  0  0  0  0  0999 V2000
   39.1130   19.1090   18.0150 F   0  0  0  0  0  0  0  0  0  0  0  0
   35.2700   19.3980   15.0640 O   0  0  0  0  0  0  0  0  0  0  0  0
   35.2130   19.0390   21.1320 O   0  0  0  0  0  0  0  0  0  0  0  0
   32.8650   19.2870   22.2940 O   0  0  0  0  0  0  0  0  0  0  0  0
   31.1310   18.9110   21.0020 O   0  0  0  0  0  0  0  0  0  0  0  0
   38.0390   19.2970   15.2410 N   0  0  0  0  0  0  0  0  0  0  0  0
   39.7610   18.2760   13.2460 N   0  0  0  0  0  0  0  0  0  0  0  0
   33.4560   19.3180   17.3900 N   0  0  0  0  0  0  0  0  0  0  0  0
   39.0420   20.5880   13.3380 C   0  0  2  0  0  0  0  0  0  0  0  0
   39.9110   19.6610   13.8430 C   0  0  1  0  0  0  0  0  0  0  0  0
   37.7370   20.4810   14.2260 C   0  0  0  0  0  0  0  0  0  0  0  0
   39.3870   19.3470   15.3640 C   0  0  0  0  0  0  0  0  0  0  0  0
   38.8780   20.5490   11.8210 C   0  0  0  0  0  0  0  0  0  0  0  0
   32.7660   19.4320   16.1300 C   0  0  0  0  0  0  0  0  0  0  0  0
   38.8930   19.2190   11.2280 C   0  0  0  0  0  0  0  0  0  0  0  0
   32.5700   20.5590   15.1290 C   0  0  0  0  0  0  0  0  0  0  0  0
   31.4050   20.0970   15.9770 C   0  0  0  0  0  0  0  0  0  0  0  0
   39.8350   18.3160   11.8060 C   0  0  0  0  0  0  0  0  0  0  0  0
   37.2350   19.2720   16.4850 C   0  0  0  0  0  0  0  0  0  0  0  0
   34.9760   19.2640   17.5030 C   0  0  0  0  0  0  0  0  0  0  0  0
   35.8250   19.3100   16.3650 C   0  0  0  0  0  0  0  0  0  0  0  0
   35.5600   19.1690   18.7850 C   0  0  0  0  0  0  0  0  0  0  0  0
   37.7920   19.1610   17.7900 C   0  0  0  0  0  0  0  0  0  0  0  0
   32.6330   19.2720   18.5820 C   0  0  0  0  0  0  0  0  0  0  0  0
   36.9550   19.1190   18.9170 C   0  0  0  0  0  0  0  0  0  0  0  0
   33.2550   19.1720   19.9160 C   0  0  0  0  0  0  0  0  0  0  0  0
   34.7000   19.1210   20.0320 C   0  0  0  0  0  0  0  0  0  0  0  0
   32.3680   19.1220   21.1460 C   0  0  0  0  0  0  0  0  0  0  0  0
   35.2910   18.1540   14.3630 C   0  0  0  0  0  0  0  0  0  0  0  0
   30.5393   18.8755   21.7949 H   0  0  0  0  0  0  0  0  0  0  0  0
   40.5150   17.6726   13.6042 H   0  0  0  0  0  0  0  0  0  0  0  0
   39.4359   21.6116   13.4220 H   0  0  0  0  0  0  0  0  0  0  0  0
   40.9199   20.0700   13.6854 H   0  0  0  0  0  0  0  0  0  0  0  0
   36.8617   20.2447   13.6031 H   0  0  0  0  0  0  0  0  0  0  0  0
   37.5053   21.4242   14.7424 H   0  0  0  0  0  0  0  0  0  0  0  0
   39.6874   20.1488   16.0546 H   0  0  0  0  0  0  0  0  0  0  0  0
   39.8099   18.4184   15.7749 H   0  0  0  0  0  0  0  0  0  0  0  0
   37.9169   21.0220   11.5707 H   0  0  0  0  0  0  0  0  0  0  0  0
   39.7497   21.0768   11.4069 H   0  0  0  0  0  0  0  0  0  0  0  0
   33.2519   18.4505   16.0270 H   0  0  0  0  0  0  0  0  0  0  0  0
   37.8890   18.7835   11.3392 H   0  0  0  0  0  0  0  0  0  0  0  0
   39.1951   19.3515   10.1786 H   0  0  0  0  0  0  0  0  0  0  0  0
   33.0271   21.5425   15.3127 H   0  0  0  0  0  0  0  0  0  0  0  0
   32.7455   20.6779   14.0496 H   0  0  0  0  0  0  0  0  0  0  0  0
   30.5728   19.5460   15.5145 H   0  0  0  0  0  0  0  0  0  0  0  0
   30.6990   20.5891   16.6621 H   0  0  0  0  0  0  0  0  0  0  0  0
   40.8479   18.6311   11.5149 H   0  0  0  0  0  0  0  0  0  0  0  0
   39.5981   17.3081   11.4344 H   0  0  0  0  0  0  0  0  0  0  0  0
   31.5375   19.3119   18.4915 H   0  0  0  0  0  0  0  0  0  0  0  0
   37.4012   19.0457   19.9198 H   0  0  0  0  0  0  0  0  0  0  0  0
   35.3050   17.3256   15.0866 H   0  0  0  0  0  0  0  0  0  0  0  0
   34.3941   18.0739   13.7312 H   0  0  0  0  0  0  0  0  0  0  0  0
   36.1901   18.1043   13.7312 H   0  0  0  0  0  0  0  0  0  0  0  0
  7 10  1  0
  9 10  1  0
  6 11  1  0
  9 11  1  0
  6 12  1  0
 10 12  1  0
  9 13  1  0
  8 14  1  0
 13 15  1  0
 14 16  1  0
 14 17  1  0
 16 17  1  0
  7 18  1  0
 15 18  1  0
  6 19  1  0
  8 20  1  0
  2 21  1  0
 19 21  2  0
 20 21  1  0
 20 22  2  0
  1 23  1  0
 19 23  1  0
  8 24  1  0
 22 25  1  0
 23 25  2  0
 24 26  2  0
 22 27  1  0
 26 27  1  0
 27  3  2  0
  5 28  1  0
 26 28  1  0
 28  4  2  0
  2 29  1  0
  5 30  1  0
  7 31  1  0
  9 32  1  6
 10 33  1  1
 11 34  1  0
 11 35  1  0
 12 36  1  0
 12 37  1  0
 13 38  1  0
 13 39  1  0
 14 40  1  0
 15 41  1  0
 15 42  1  0
 16 43  1  0
 16 44  1  0
 17 45  1  0
 17 46  1  0
 18 47  1  0
 18 48  1  0
 24 49  1  0
 25 50  1  0
 29 51  1  0
 29 52  1  0
 29 53  1  0
M  END
$$$$
