PDB_DB01095_97
     RDKit          3D

 56 58  0  0  0  0  0  0  0  0999 V2000
   15.0440   18.1020   27.7990 C   0  0  0  0  0  0  0  0  0  0  0  0
   15.9520   18.4010   28.7910 C   0  0  0  0  0  0  0  0  0  0  0  0
   15.4950   18.6560   30.1010 C   0  0  0  0  0  0  0  0  0  0  0  0
   14.1140   18.6040   30.3820 C   0  0  0  0  0  0  0  0  0  0  0  0
   13.2030   18.3000   29.3580 C   0  0  0  0  0  0  0  0  0  0  0  0
   13.6670   18.0450   28.0500 C   0  0  0  0  0  0  0  0  0  0  0  0
   15.7740   17.8710   26.5150 C   0  0  0  0  0  0  0  0  0  0  0  0
   17.0550   18.0650   26.8930 C   0  0  0  0  0  0  0  0  0  0  0  0
   17.1600   18.3920   28.3130 N   0  0  0  0  0  0  0  0  0  0  0  0
   13.7430   17.9400   23.2840 C   0  0  0  0  0  0  0  0  0  0  0  0
   14.2400   18.3240   24.5360 C   0  0  0  0  0  0  0  0  0  0  0  0
   15.1860   17.5090   25.1670 C   0  0  0  0  0  0  0  0  0  0  0  0
   15.6240   16.3280   24.5500 C   0  0  0  0  0  0  0  0  0  0  0  0
   15.1300   15.9530   23.3140 C   0  0  0  0  0  0  0  0  0  0  0  0
   14.1960   16.7510   22.6790 C   0  0  0  0  0  0  0  0  0  0  0  0
   13.7220   16.3700   21.4640 F   0  0  0  0  0  0  0  0  0  0  0  0
   18.7480   12.3790   21.7650 O   0  0  0  0  0  0  0  0  0  0  0  0
   17.5700   12.6400   23.6940 O   0  0  0  0  0  0  0  0  0  0  0  0
   19.2930   15.6680   22.5770 O   0  0  0  0  0  0  0  0  0  0  0  0
   18.6670   12.7990   22.9120 C   0  0  0  0  0  0  0  0  0  0  0  0
   19.7850   13.5640   23.6200 C   0  0  0  0  0  0  0  0  0  0  0  0
   19.4630   15.0580   23.8520 C   0  0  1  0  0  0  0  0  0  0  0  0
   20.6020   15.7970   24.5810 C   0  0  0  0  0  0  0  0  0  0  0  0
   20.2530   17.2520   24.9440 C   0  0  1  0  0  0  0  0  0  0  0  0
   19.2230   17.2960   26.0410 C   0  0  0  0  0  0  0  0  0  0  0  0
   18.0650   17.9450   25.9980 C   0  0  0  0  0  0  0  0  0  0  0  0
   18.4780   18.6070   29.0610 C   0  0  0  0  0  0  0  0  0  0  0  0
   18.4960   19.9500   29.8140 C   0  0  0  0  0  0  0  0  0  0  0  0
   18.7750   17.4440   30.0390 C   0  0  0  0  0  0  0  0  0  0  0  0
   21.4500   17.8740   25.3480 O   0  0  0  0  0  0  0  0  0  0  0  0
   16.2127   18.8944   30.8998 H   0  0  0  0  0  0  0  0  0  0  0  0
   13.7513   18.8013   31.4016 H   0  0  0  0  0  0  0  0  0  0  0  0
   12.1255   18.2605   29.5757 H   0  0  0  0  0  0  0  0  0  0  0  0
   12.9601   17.8057   27.2419 H   0  0  0  0  0  0  0  0  0  0  0  0
   12.9982   18.5675   22.7726 H   0  0  0  0  0  0  0  0  0  0  0  0
   13.8922   19.2511   25.0152 H   0  0  0  0  0  0  0  0  0  0  0  0
   16.3679   15.6937   25.0543 H   0  0  0  0  0  0  0  0  0  0  0  0
   15.4783   15.0244   22.8382 H   0  0  0  0  0  0  0  0  0  0  0  0
   19.5755   12.5253   21.2416 H   0  0  0  0  0  0  0  0  0  0  0  0
   19.0292   16.6147   22.6966 H   0  0  0  0  0  0  0  0  0  0  0  0
   19.9650   13.0914   24.5969 H   0  0  0  0  0  0  0  0  0  0  0  0
   20.6683   13.5226   22.9657 H   0  0  0  0  0  0  0  0  0  0  0  0
   18.5598   15.1218   24.4767 H   0  0  0  0  0  0  0  0  0  0  0  0
   20.8337   15.2523   25.5082 H   0  0  0  0  0  0  0  0  0  0  0  0
   21.4597   15.8307   23.8931 H   0  0  0  0  0  0  0  0  0  0  0  0
   19.8184   17.7769   24.0805 H   0  0  0  0  0  0  0  0  0  0  0  0
   19.4502   16.7398   26.9624 H   0  0  0  0  0  0  0  0  0  0  0  0
   17.8934   18.4882   25.0570 H   0  0  0  0  0  0  0  0  0  0  0  0
   19.2709   18.6304   28.2989 H   0  0  0  0  0  0  0  0  0  0  0  0
   18.4935   19.7627   30.8979 H   0  0  0  0  0  0  0  0  0  0  0  0
   19.4017   20.5113   29.5410 H   0  0  0  0  0  0  0  0  0  0  0  0
   17.6056   20.5354   29.5410 H   0  0  0  0  0  0  0  0  0  0  0  0
   18.6832   17.8033   31.0746 H   0  0  0  0  0  0  0  0  0  0  0  0
   18.0562   16.6290   29.8686 H   0  0  0  0  0  0  0  0  0  0  0  0
   19.7966   17.0735   29.8686 H   0  0  0  0  0  0  0  0  0  0  0  0
   21.4929   17.8963   26.3368 H   0  0  0  0  0  0  0  0  0  0  0  0
  1  2  1  0
  2  3  2  0
  3  4  1  0
  4  5  2  0
  1  6  2  0
  5  6  1  0
  1  7  1  0
  7  8  2  0
  2  9  1  0
  8  9  1  0
 10 11  2  0
  7 12  1  0
 11 12  1  0
 12 13  2  0
 13 14  1  0
 10 15  1  0
 14 15  2  0
 15 16  1  0
 17 20  1  0
 18 20  2  0
 20 21  1  0
 19 22  1  0
 21 22  1  0
 22 23  1  0
 23 24  1  0
 24 25  1  0
  8 26  1  0
 25 26  2  0
  9 27  1  0
 27 28  1  0
 27 29  1  0
 24 30  1  0
  3 31  1  0
  4 32  1  0
  5 33  1  0
  6 34  1  0
 10 35  1  0
 11 36  1  0
 13 37  1  0
 14 38  1  0
 17 39  1  0
 19 40  1  0
 21 41  1  0
 21 42  1  0
 22 43  1  1
 23 44  1  0
 23 45  1  0
 24 46  1  6
 25 47  1  0
 26 48  1  0
 27 49  1  0
 28 50  1  0
 28 51  1  0
 28 52  1  0
 29 53  1  0
 29 54  1  0
 29 55  1  0
 30 56  1  0
M  END
$$$$
