PDB_DB01263_99
     RDKit          3D

 93 99  0  0  0  0  0  0  0  0999 V2000
  186.8630   14.2360   43.8750 C   0  0  0  0  0  0  0  0  0  0  0  0
  183.7620   11.4620   41.1120 C   0  0  0  0  0  0  0  0  0  0  0  0
  185.6790    9.7550   43.0550 O   0  0  0  0  0  0  0  0  0  0  0  0
  184.5190   13.6580   40.4650 O   0  0  0  0  0  0  0  0  0  0  0  0
  195.2860   -3.5720   33.6020 F   0  0  0  0  0  0  0  0  0  0  0  0
  196.5500   -7.8420   32.0270 F   0  0  0  0  0  0  0  0  0  0  0  0
  195.9220   -5.7010   32.7960 C   0  0  0  0  0  0  0  0  0  0  0  0
  193.1060    0.1890   39.5160 C   0  0  0  0  0  0  0  0  0  0  0  0
  190.8810   -0.6860   39.3900 C   0  0  0  0  0  0  0  0  0  0  0  0
  192.6260    1.3110   40.1800 C   0  0  0  0  0  0  0  0  0  0  0  0
  190.4020    0.4390   40.0560 C   0  0  0  0  0  0  0  0  0  0  0  0
  189.3270    7.2800   40.5210 C   0  0  0  0  0  0  0  0  0  0  0  0
  188.1870    6.6600   42.5260 C   0  0  0  0  0  0  0  0  0  0  0  0
  188.8490    8.5740   40.6600 C   0  0  0  0  0  0  0  0  0  0  0  0
  187.7180    7.9660   42.6400 C   0  0  0  0  0  0  0  0  0  0  0  0
  196.1500   -7.0480   33.0370 C   0  0  0  0  0  0  0  0  0  0  0  0
  199.3120   -4.7080   36.0470 C   0  0  0  0  0  0  0  0  0  0  0  0
  195.3150   -5.4390   35.1880 C   0  0  0  0  0  0  0  0  0  0  0  0
  197.9010   -5.1010   37.7040 C   0  0  0  0  0  0  0  0  0  0  0  0
  188.1200   11.2600   41.1630 C   0  0  0  0  0  0  0  0  0  0  0  0
  185.8440   14.2150   42.7580 C   0  0  0  0  0  0  0  0  0  0  0  0
  193.7340   -3.6400   35.8050 C   0  0  0  0  0  0  0  0  0  0  0  0
  189.3860    2.6630   41.3830 C   0  0  0  0  0  0  0  0  0  0  0  0
  191.3700    3.8050   40.4780 C   0  0  0  0  0  0  0  0  0  0  0  0
  189.0220    3.9560   42.1100 C   0  0  0  0  0  0  0  0  0  0  0  0
  190.9830    5.0300   41.2910 C   0  0  0  0  0  0  0  0  0  0  0  0
  192.1190   -2.3700   37.2660 C   0  0  0  0  0  0  0  0  0  0  0  0
  196.0100   -3.6350   36.7670 C   0  0  0  0  0  0  0  0  0  0  0  0
  199.1370   -5.3620   37.2210 N   0  0  0  0  0  0  0  0  0  0  0  0
  198.1850   -4.0190   35.7600 N   0  0  0  0  0  0  0  0  0  0  0  0
  187.3160   12.3240   41.4280 N   0  0  0  0  0  0  0  0  0  0  0  0
  192.7330   -1.9180   38.4680 O   0  0  0  0  0  0  0  0  0  0  0  0
  194.3670   -5.2540   37.4200 O   0  0  0  0  0  0  0  0  0  0  0  0
  195.5080   -4.8770   33.8300 C   0  0  0  0  0  0  0  0  0  0  0  0
  195.5510   -6.7940   35.3770 C   0  0  0  0  0  0  0  0  0  0  0  0
  192.2380   -0.8160   39.1160 C   0  0  0  0  0  0  0  0  0  0  0  0
  191.2710    1.4520   40.4520 C   0  0  0  0  0  0  0  0  0  0  0  0
  189.0020    6.3140   41.4580 C   0  0  0  0  0  0  0  0  0  0  0  0
  188.0370    8.9640   41.7190 C   0  0  0  0  0  0  0  0  0  0  0  0
  195.9650   -7.5810   34.3080 C   0  0  0  0  0  0  0  0  0  0  0  0
  186.4310   10.5470   42.3760 C   0  0  0  0  0  0  0  0  0  0  0  0
  184.1060   12.8680   41.5860 C   0  0  2  0  0  0  0  0  0  0  0  0
  185.2170   12.8350   42.6260 C   0  0  1  0  0  0  0  0  0  0  0  0
  190.8410    2.6030   41.1440 N   0  0  0  0  0  0  0  0  0  0  0  0
  189.5190    5.0290   41.2430 N   0  0  0  0  0  0  0  0  0  0  0  0
  197.3070   -4.3100   36.8100 N   0  0  0  0  0  0  0  0  0  0  0  0
  187.5810   10.2170   41.8050 N   0  0  0  0  0  0  0  0  0  0  0  0
  186.2480   11.8530   42.2130 N   0  0  0  0  0  0  0  0  0  0  0  0
  194.8700   -4.5310   36.2960 C   0  0  2  0  0  0  0  0  0  0  0  0
  193.2880   -4.5210   38.0020 C   0  0  0  0  0  0  0  0  0  0  0  0
  192.6430   -3.7440   36.8600 C   0  0  2  0  0  0  0  0  0  0  0  0
  186.3442   14.2253   44.8449 H   0  0  0  0  0  0  0  0  0  0  0  0
  187.5116   13.3510   43.7963 H   0  0  0  0  0  0  0  0  0  0  0  0
  187.4746   15.1469   43.7963 H   0  0  0  0  0  0  0  0  0  0  0  0
  183.6025   10.8100   41.9835 H   0  0  0  0  0  0  0  0  0  0  0  0
  182.8451   11.4937   40.5051 H   0  0  0  0  0  0  0  0  0  0  0  0
  184.5900   11.0668   40.5051 H   0  0  0  0  0  0  0  0  0  0  0  0
  184.9526   14.4874   40.7877 H   0  0  0  0  0  0  0  0  0  0  0  0
  196.0695   -5.2884   31.7870 H   0  0  0  0  0  0  0  0  0  0  0  0
  194.1819    0.0971   39.3061 H   0  0  0  0  0  0  0  0  0  0  0  0
  190.1820   -1.4763   39.0789 H   0  0  0  0  0  0  0  0  0  0  0  0
  193.3277    2.0976   40.4943 H   0  0  0  0  0  0  0  0  0  0  0  0
  189.3270    0.5282   40.2713 H   0  0  0  0  0  0  0  0  0  0  0  0
  189.9660    7.0202   39.6642 H   0  0  0  0  0  0  0  0  0  0  0  0
  187.9127    5.9064   43.2789 H   0  0  0  0  0  0  0  0  0  0  0  0
  189.1233    9.3223   39.9018 H   0  0  0  0  0  0  0  0  0  0  0  0
  187.0695    8.2213   43.4910 H   0  0  0  0  0  0  0  0  0  0  0  0
  200.2217   -4.7336   35.4291 H   0  0  0  0  0  0  0  0  0  0  0  0
  197.4710   -5.4685   38.6474 H   0  0  0  0  0  0  0  0  0  0  0  0
  189.0302   11.2572   40.5453 H   0  0  0  0  0  0  0  0  0  0  0  0
  185.0553   14.9504   42.9752 H   0  0  0  0  0  0  0  0  0  0  0  0
  186.3500   14.4647   41.8137 H   0  0  0  0  0  0  0  0  0  0  0  0
  194.0770   -2.5992   35.7094 H   0  0  0  0  0  0  0  0  0  0  0  0
  193.3719   -3.9531   34.8146 H   0  0  0  0  0  0  0  0  0  0  0  0
  189.0834    1.8029   41.9984 H   0  0  0  0  0  0  0  0  0  0  0  0
  188.8627    2.6364   40.4158 H   0  0  0  0  0  0  0  0  0  0  0  0
  190.9448    3.8839   39.4666 H   0  0  0  0  0  0  0  0  0  0  0  0
  192.4655    3.7380   40.4040 H   0  0  0  0  0  0  0  0  0  0  0  0
  187.9322    4.0348   42.2374 H   0  0  0  0  0  0  0  0  0  0  0  0
  189.4600    4.0017   43.1180 H   0  0  0  0  0  0  0  0  0  0  0  0
  191.3417    4.9427   42.3272 H   0  0  0  0  0  0  0  0  0  0  0  0
  191.4222    5.9589   40.8983 H   0  0  0  0  0  0  0  0  0  0  0  0
  191.0316   -2.4322   37.4202 H   0  0  0  0  0  0  0  0  0  0  0  0
  192.3575   -1.6560   36.4639 H   0  0  0  0  0  0  0  0  0  0  0  0
  195.7727   -3.2733   37.7784 H   0  0  0  0  0  0  0  0  0  0  0  0
  196.0974   -2.8152   36.0388 H   0  0  0  0  0  0  0  0  0  0  0  0
  195.4107   -7.2443   36.3708 H   0  0  0  0  0  0  0  0  0  0  0  0
  196.1509   -8.6527   34.4719 H   0  0  0  0  0  0  0  0  0  0  0  0
  183.2123   13.3115   42.0492 H   0  0  0  0  0  0  0  0  0  0  0  0
  184.7972   12.5390   43.5987 H   0  0  0  0  0  0  0  0  0  0  0  0
  192.5593   -5.2090   38.4555 H   0  0  0  0  0  0  0  0  0  0  0  0
  193.6409   -3.8485   38.7978 H   0  0  0  0  0  0  0  0  0  0  0  0
  191.7435   -4.2626   36.4968 H   0  0  0  0  0  0  0  0  0  0  0  0
  8 10  2  0
  9 11  1  0
 12 14  2  0
 13 15  1  0
  6 16  1  0
  7 16  2  0
  1 21  1  0
 23 25  1  0
 24 26  1  0
 17 29  1  0
 19 29  2  0
 17 30  2  0
 20 31  2  0
 27 32  1  0
  5 34  1  0
  7 34  1  0
 18 34  2  0
 18 35  1  0
  8 36  1  0
  9 36  2  0
 32 36  1  0
 10 37  1  0
 11 37  2  0
 12 38  1  0
 13 38  2  0
 14 39  1  0
 15 39  2  0
 16 40  1  0
 35 40  2  0
  3 41  2  0
  2 42  1  0
  4 42  1  0
 21 43  1  0
 42 43  1  0
 23 44  1  0
 24 44  1  0
 37 44  1  0
 25 45  1  0
 26 45  1  0
 38 45  1  0
 19 46  1  0
 28 46  1  0
 30 46  1  0
 20 47  1  0
 39 47  1  0
 41 47  1  0
 31 48  1  0
 41 48  1  0
 43 48  1  0
 18 49  1  0
 22 49  1  0
 49 28  1  1
 33 49  1  0
 33 50  1  0
 22 51  1  0
 27 51  1  0
 50 51  1  0
  1 52  1  0
  1 53  1  0
  1 54  1  0
  2 55  1  0
  2 56  1  0
  2 57  1  0
  4 58  1  0
  7 59  1  0
  8 60  1  0
  9 61  1  0
 10 62  1  0
 11 63  1  0
 12 64  1  0
 13 65  1  0
 14 66  1  0
 15 67  1  0
 17 68  1  0
 19 69  1  0
 20 70  1  0
 21 71  1  0
 21 72  1  0
 22 73  1  0
 22 74  1  0
 23 75  1  0
 23 76  1  0
 24 77  1  0
 24 78  1  0
 25 79  1  0
 25 80  1  0
 26 81  1  0
 26 82  1  0
 27 83  1  0
 27 84  1  0
 28 85  1  0
 28 86  1  0
 35 87  1  0
 40 88  1  0
 42 89  1  1
 43 90  1  1
 50 91  1  0
 50 92  1  0
 51 93  1  6
M  END
$$$$
