PDB_DB06290_97
     RDKit          3D

 99105  0  0  0  0  0  0  0  0999 V2000
    3.4520   -8.4980   13.1570 C   0  0  0  0  0  0  0  0  0  0  0  0
    1.9410   -8.3040   13.0640 C   0  0  2  0  0  0  0  0  0  0  0  0
    1.4290   -9.6850   13.5250 C   0  0  1  0  0  0  0  0  0  0  0  0
    2.2270   -9.9650   14.7940 C   0  0  0  0  0  0  0  0  0  0  0  0
    3.6210   -9.4610   14.3500 C   0  0  1  0  0  0  0  0  0  0  0  0
   -0.0940   -9.7780   13.5530 C   0  0  0  0  0  0  0  0  0  0  0  0
   -0.7830   -8.9170   14.0550 O   0  0  0  0  0  0  0  0  0  0  0  0
   -0.5500  -10.8770   12.9670 N   0  0  0  0  0  0  0  0  0  0  0  0
    1.3710   -7.8820   11.6980 C   0  0  0  0  0  0  0  0  0  0  0  0
    1.1090   -8.7190   10.8580 O   0  0  0  0  0  0  0  0  0  0  0  0
   -2.0730  -10.7890   11.1970 C   0  0  1  0  0  0  0  0  0  0  0  0
   -3.0920  -11.2500   13.6230 C   0  0  0  0  0  0  0  0  0  0  0  0
    1.1230   -6.5910   11.4730 N   0  0  0  0  0  0  0  0  0  0  0  0
    0.5340   -6.1360   10.2100 C   0  0  0  0  0  0  0  0  0  0  0  0
    1.4030   -5.5330   12.4540 C   0  0  0  0  0  0  0  0  0  0  0  0
   -1.9120  -11.3020   12.6540 C   0  0  2  0  0  0  0  0  0  0  0  0
   -2.1810  -12.2780   11.5390 C   0  0  0  0  0  0  0  0  0  0  0  0
   -3.3580  -10.0190   10.8580 C   0  0  0  0  0  0  0  0  0  0  0  0
   -0.9380   -5.7350   10.4920 C   0  0  0  0  0  0  0  0  0  0  0  0
   -1.9270   -6.8080   11.0060 C   0  0  0  0  0  0  0  0  0  0  0  0
   -2.2580   -7.8690    9.9550 C   0  0  0  0  0  0  0  0  0  0  0  0
   -3.4430   -8.7630   10.3450 C   0  0  0  0  0  0  0  0  0  0  0  0
    4.3820  -10.5540   13.8670 O   0  0  0  0  0  0  0  0  0  0  0  0
    8.1810  -13.5560   12.7240 C   0  0  0  0  0  0  0  0  0  0  0  0
    7.2840  -12.7920   11.9530 C   0  0  0  0  0  0  0  0  0  0  0  0
    6.3110  -12.0570   12.5910 C   0  0  0  0  0  0  0  0  0  0  0  0
    6.2440  -12.0620   13.9900 C   0  0  0  0  0  0  0  0  0  0  0  0
    7.1320  -12.8150   14.7440 C   0  0  0  0  0  0  0  0  0  0  0  0
    8.0990  -13.5850   14.1120 C   0  0  0  0  0  0  0  0  0  0  0  0
    5.2650  -11.3000   14.6380 C   0  0  0  0  0  0  0  0  0  0  0  0
    5.2090  -11.3060   16.0050 C   0  0  0  0  0  0  0  0  0  0  0  0
    6.1390  -12.0610   16.7100 C   0  0  0  0  0  0  0  0  0  0  0  0
    7.0700  -12.8030   16.0950 N   0  0  0  0  0  0  0  0  0  0  0  0
    6.0700  -12.0390   18.1900 C   0  0  0  0  0  0  0  0  0  0  0  0
    7.1770  -13.0970   19.0520 S   0  0  0  0  0  0  0  0  0  0  0  0
    6.5670  -12.5900   20.6510 C   0  0  0  0  0  0  0  0  0  0  0  0
    5.6230  -11.6110   20.3650 C   0  0  0  0  0  0  0  0  0  0  0  0
    5.3630  -11.3460   19.0500 N   0  0  0  0  0  0  0  0  0  0  0  0
    4.9580  -11.0380   21.5780 C   0  0  0  0  0  0  0  0  0  0  0  0
    4.5000   -9.6070   21.2860 C   0  0  0  0  0  0  0  0  0  0  0  0
    5.7500  -11.2010   22.9140 C   0  0  0  0  0  0  0  0  0  0  0  0
    9.1790  -14.3350   12.0630 O   0  0  0  0  0  0  0  0  0  0  0  0
    9.5480  -14.0050   10.7140 C   0  0  0  0  0  0  0  0  0  0  0  0
    9.0590  -14.4090   14.9750 C   0  0  0  0  0  0  0  0  0  0  0  0
   -2.8260  -11.2750   14.9390 N   0  0  0  0  0  0  0  0  0  0  0  0
   -4.2200  -11.2840   13.1770 O   0  0  0  0  0  0  0  0  0  0  0  0
   -3.9030  -11.2870   16.0230 S   0  0  0  0  0  0  0  0  0  0  0  0
   -3.1080  -11.1540   17.4820 C   0  0  0  0  0  0  0  0  0  0  0  0
   -4.7880  -10.1930   15.9090 O   0  0  0  0  0  0  0  0  0  0  0  0
   -4.7100  -12.4700   15.9110 O   0  0  0  0  0  0  0  0  0  0  0  0
   -3.0590  -12.5320   18.1210 C   0  0  0  0  0  0  0  0  0  0  0  0
   -4.0640  -11.4860   18.6200 C   0  0  0  0  0  0  0  0  0  0  0  0
    3.8484   -8.9441   12.2329 H   0  0  0  0  0  0  0  0  0  0  0  0
    3.9971   -7.5519   13.2907 H   0  0  0  0  0  0  0  0  0  0  0  0
    1.6109   -7.4468   13.6692 H   0  0  0  0  0  0  0  0  0  0  0  0
    1.6108  -10.5122   12.8231 H   0  0  0  0  0  0  0  0  0  0  0  0
    1.8414   -9.3960   15.6528 H   0  0  0  0  0  0  0  0  0  0  0  0
    2.1994  -11.0094   15.1382 H   0  0  0  0  0  0  0  0  0  0  0  0
    4.1103   -8.9721   15.2054 H   0  0  0  0  0  0  0  0  0  0  0  0
    0.1813  -11.5450   12.6843 H   0  0  0  0  0  0  0  0  0  0  0  0
   -1.4734  -10.1911   10.4949 H   0  0  0  0  0  0  0  0  0  0  0  0
    1.0918   -5.2683    9.8278 H   0  0  0  0  0  0  0  0  0  0  0  0
    0.5773   -6.9351    9.4553 H   0  0  0  0  0  0  0  0  0  0  0  0
    1.2958   -5.9382   13.4710 H   0  0  0  0  0  0  0  0  0  0  0  0
    2.4297   -5.1642   12.3126 H   0  0  0  0  0  0  0  0  0  0  0  0
    0.6932   -4.7047   12.3126 H   0  0  0  0  0  0  0  0  0  0  0  0
   -3.1566  -12.7825   11.4787 H   0  0  0  0  0  0  0  0  0  0  0  0
   -1.6811  -13.1884   11.1767 H   0  0  0  0  0  0  0  0  0  0  0  0
   -4.3086  -10.5380   11.0504 H   0  0  0  0  0  0  0  0  0  0  0  0
   -0.9142   -4.9330   11.2445 H   0  0  0  0  0  0  0  0  0  0  0  0
   -1.3318   -5.4699    9.4997 H   0  0  0  0  0  0  0  0  0  0  0  0
   -1.4805   -7.3067   11.8789 H   0  0  0  0  0  0  0  0  0  0  0  0
   -2.8656   -6.2945   11.2617 H   0  0  0  0  0  0  0  0  0  0  0  0
   -2.5007   -7.3604    9.0103 H   0  0  0  0  0  0  0  0  0  0  0  0
   -1.3764   -8.5202    9.8615 H   0  0  0  0  0  0  0  0  0  0  0  0
   -4.4517   -8.3503   10.1960 H   0  0  0  0  0  0  0  0  0  0  0  0
    7.3599  -12.7828   10.8557 H   0  0  0  0  0  0  0  0  0  0  0  0
    5.5895  -11.4686   12.0052 H   0  0  0  0  0  0  0  0  0  0  0  0
    4.4418  -10.7238   16.5365 H   0  0  0  0  0  0  0  0  0  0  0  0
    6.8697  -12.9671   21.6390 H   0  0  0  0  0  0  0  0  0  0  0  0
    4.0662  -11.6505   21.7768 H   0  0  0  0  0  0  0  0  0  0  0  0
    4.3300   -9.0758   22.2341 H   0  0  0  0  0  0  0  0  0  0  0  0
    5.2758   -9.0846   20.7070 H   0  0  0  0  0  0  0  0  0  0  0  0
    3.5650   -9.6322   20.7070 H   0  0  0  0  0  0  0  0  0  0  0  0
    5.0669  -11.0604   23.7647 H   0  0  0  0  0  0  0  0  0  0  0  0
    6.1894  -12.2084   22.9592 H   0  0  0  0  0  0  0  0  0  0  0  0
    6.5515  -10.4490   22.9592 H   0  0  0  0  0  0  0  0  0  0  0  0
   10.3679  -13.2718   10.7271 H   0  0  0  0  0  0  0  0  0  0  0  0
    9.8780  -14.9148   10.1911 H   0  0  0  0  0  0  0  0  0  0  0  0
    8.6806  -13.5758   10.1911 H   0  0  0  0  0  0  0  0  0  0  0  0
    8.8454  -14.2256   16.0384 H   0  0  0  0  0  0  0  0  0  0  0  0
    8.9256  -15.4781   14.7533 H   0  0  0  0  0  0  0  0  0  0  0  0
   10.0956  -14.1151   14.7533 H   0  0  0  0  0  0  0  0  0  0  0  0
   -1.8394  -11.2868   15.2347 H   0  0  0  0  0  0  0  0  0  0  0  0
   -2.3883  -10.3456   17.2858 H   0  0  0  0  0  0  0  0  0  0  0  0
   -3.4115  -13.4111   17.5615 H   0  0  0  0  0  0  0  0  0  0  0  0
   -2.2758  -13.1455   18.5902 H   0  0  0  0  0  0  0  0  0  0  0  0
   -3.9292  -11.0191   19.6069 H   0  0  0  0  0  0  0  0  0  0  0  0
   -5.1551  -11.4554   18.7562 H   0  0  0  0  0  0  0  0  0  0  0  0
  1  2  1  0
  2  3  1  0
  3  4  1  0
  1  5  1  0
  4  5  1  0
  3  6  1  0
  6  7  2  0
  6  8  1  0
  2  9  1  0
  9 10  2  0
  9 13  1  0
 13 14  1  0
 13 15  1  0
  8 16  1  0
 11 16  1  0
 16 12  1  1
 11 17  1  0
 16 17  1  0
 11 18  1  0
 14 19  1  0
 19 20  1  0
 20 21  1  0
 18 22  2  0
 21 22  1  0
  5 23  1  0
 24 25  2  0
 25 26  1  0
 26 27  2  0
 27 28  1  0
 24 29  1  0
 28 29  2  0
 23 30  1  0
 27 30  1  0
 30 31  2  0
 31 32  1  0
 28 33  1  0
 32 33  2  0
 32 34  1  0
 34 35  1  0
 35 36  1  0
 36 37  2  0
 34 38  2  0
 37 38  1  0
 37 39  1  0
 39 40  1  0
 39 41  1  0
 24 42  1  0
 42 43  1  0
 29 44  1  0
 12 45  1  0
 12 46  2  0
 45 47  1  0
 47 48  1  0
 47 49  2  0
 47 50  2  0
 48 51  1  0
 48 52  1  0
 51 52  1  0
  1 53  1  0
  1 54  1  0
  2 55  1  1
  3 56  1  6
  4 57  1  0
  4 58  1  0
  5 59  1  1
  8 60  1  0
 11 61  1  6
 14 62  1  0
 14 63  1  0
 15 64  1  0
 15 65  1  0
 15 66  1  0
 17 67  1  0
 17 68  1  0
 18 69  1  0
 19 70  1  0
 19 71  1  0
 20 72  1  0
 20 73  1  0
 21 74  1  0
 21 75  1  0
 22 76  1  0
 25 77  1  0
 26 78  1  0
 31 79  1  0
 36 80  1  0
 39 81  1  0
 40 82  1  0
 40 83  1  0
 40 84  1  0
 41 85  1  0
 41 86  1  0
 41 87  1  0
 43 88  1  0
 43 89  1  0
 43 90  1  0
 44 91  1  0
 44 92  1  0
 44 93  1  0
 45 94  1  0
 48 95  1  0
 51 96  1  0
 51 97  1  0
 52 98  1  0
 52 99  1  0
M  END
$$$$
