PDB_DB00759_92
     RDKit          3D

 56 59  0  0  0  0  0  0  0  0999 V2000
  -71.3250   91.1500   80.5630 C   0  0  0  0  0  0  0  0  0  0  0  0
  -70.5750   90.3530   80.0070 O   0  0  0  0  0  0  0  0  0  0  0  0
  -71.0790   92.5920   80.6020 C   0  0  0  0  0  0  0  0  0  0  0  0
  -70.4660   93.2920   79.4640 C   0  0  0  0  0  0  0  0  0  0  0  0
  -71.1450   94.0480   78.7850 O   0  0  0  0  0  0  0  0  0  0  0  0
  -69.1710   93.1040   79.2030 N   0  0  0  0  0  0  0  0  0  0  0  0
  -71.4400   93.2700   81.7020 C   0  0  0  0  0  0  0  0  0  0  0  0
  -71.2330   94.5850   81.7500 O   0  0  0  0  0  0  0  0  0  0  0  0
  -72.0710   92.6060   82.9090 C   0  0  1  0  0  0  0  0  0  0  0  0
  -73.3190   93.2970   83.2610 N   0  0  0  0  0  0  0  0  0  0  0  0
  -74.3630   92.3000   83.5340 C   0  0  0  0  0  0  0  0  0  0  0  0
  -73.0870   94.0940   84.4740 C   0  0  0  0  0  0  0  0  0  0  0  0
  -72.3550   91.1090   82.7370 C   0  0  2  0  0  0  0  0  0  0  0  0
  -71.2150   90.2630   83.2800 C   0  0  0  0  0  0  0  0  0  0  0  0
  -71.6150   88.7900   83.3260 C   0  0  2  0  0  0  0  0  0  0  0  0
  -70.3820   87.8950   83.4830 C   0  0  2  0  0  0  0  0  0  0  0  0
  -69.5920   88.2880   84.7250 C   0  0  0  0  0  0  0  0  0  0  0  0
  -69.5500   88.0030   82.3170 O   0  0  0  0  0  0  0  0  0  0  0  0
  -70.8400   86.4760   83.6510 C   0  0  0  0  0  0  0  0  0  0  0  0
  -70.1810   85.6000   84.5060 C   0  0  0  0  0  0  0  0  0  0  0  0
  -70.6220   84.2820   84.6540 C   0  0  0  0  0  0  0  0  0  0  0  0
  -71.7280   83.7810   83.9630 C   0  0  0  0  0  0  0  0  0  0  0  0
  -72.4500   84.5870   83.0850 C   0  0  0  0  0  0  0  0  0  0  0  0
  -73.5320   84.0960   82.4150 O   0  0  0  0  0  0  0  0  0  0  0  0
  -72.0200   85.9950   82.8950 C   0  0  0  0  0  0  0  0  0  0  0  0
  -72.7290   86.9450   81.9770 C   0  0  0  0  0  0  0  0  0  0  0  0
  -73.5570   86.5510   81.1650 O   0  0  0  0  0  0  0  0  0  0  0  0
  -72.4130   88.3670   82.1140 C   0  0  0  0  0  0  0  0  0  0  0  0
  -72.8450   89.2300   81.1860 C   0  0  0  0  0  0  0  0  0  0  0  0
  -73.5500   88.7610   80.1550 O   0  0  0  0  0  0  0  0  0  0  0  0
  -72.5720   90.7170   81.2880 C   0  0  2  0  0  0  0  0  0  0  0  0
  -73.7050   91.4500   80.8030 O   0  0  0  0  0  0  0  0  0  0  0  0
  -68.7301   93.5889   78.4084 H   0  0  0  0  0  0  0  0  0  0  0  0
  -68.6123   92.4740   79.7961 H   0  0  0  0  0  0  0  0  0  0  0  0
  -71.4944   95.0982   82.5553 H   0  0  0  0  0  0  0  0  0  0  0  0
  -71.3267   92.6876   83.7148 H   0  0  0  0  0  0  0  0  0  0  0  0
  -74.4842   92.1843   84.6212 H   0  0  0  0  0  0  0  0  0  0  0  0
  -75.3135   92.6342   83.0926 H   0  0  0  0  0  0  0  0  0  0  0  0
  -74.0729   91.3351   83.0926 H   0  0  0  0  0  0  0  0  0  0  0  0
  -73.2683   93.4711   85.3623 H   0  0  0  0  0  0  0  0  0  0  0  0
  -72.0472   94.4527   84.4838 H   0  0  0  0  0  0  0  0  0  0  0  0
  -73.7719   94.9547   84.4838 H   0  0  0  0  0  0  0  0  0  0  0  0
  -73.2788   90.9210   83.3037 H   0  0  0  0  0  0  0  0  0  0  0  0
  -70.3363   90.3790   82.6285 H   0  0  0  0  0  0  0  0  0  0  0  0
  -70.9784   90.5988   84.3004 H   0  0  0  0  0  0  0  0  0  0  0  0
  -72.2647   88.6689   84.2053 H   0  0  0  0  0  0  0  0  0  0  0  0
  -70.1588   88.0060   85.6245 H   0  0  0  0  0  0  0  0  0  0  0  0
  -68.6234   87.7667   84.7236 H   0  0  0  0  0  0  0  0  0  0  0  0
  -69.4234   89.3750   84.7236 H   0  0  0  0  0  0  0  0  0  0  0  0
  -68.6075   88.1253   82.5943 H   0  0  0  0  0  0  0  0  0  0  0  0
  -69.3039   85.9476   85.0716 H   0  0  0  0  0  0  0  0  0  0  0  0
  -70.0785   83.6150   85.3394 H   0  0  0  0  0  0  0  0  0  0  0  0
  -72.0333   82.7351   84.1142 H   0  0  0  0  0  0  0  0  0  0  0  0
  -74.0362   84.6793   81.7940 H   0  0  0  0  0  0  0  0  0  0  0  0
  -73.8792   89.3815   79.4573 H   0  0  0  0  0  0  0  0  0  0  0  0
  -74.2308   91.7902   81.5698 H   0  0  0  0  0  0  0  0  0  0  0  0
  2  1  2  0
  3  1  1  0
  4  3  1  0
  5  4  2  0
  6  4  1  0
  7  3  2  0
  8  7  1  0
  9  7  1  0
 10  9  1  0
 11 10  1  0
 12 10  1  0
 13  9  1  0
 14 13  1  0
 15 14  1  0
 16 15  1  0
 17 16  1  0
 16 18  1  6
 19 16  1  0
 20 19  2  0
 21 20  1  0
 22 21  2  0
 23 22  1  0
 24 23  1  0
 25 23  2  0
 25 19  1  0
 26 25  1  0
 27 26  2  0
 28 26  1  0
 28 15  1  0
 29 28  2  0
 30 29  1  0
 31 29  1  0
 31  1  1  0
 31 13  1  0
 31 32  1  6
  6 33  1  0
  6 34  1  0
  8 35  1  0
  9 36  1  1
 11 37  1  0
 11 38  1  0
 11 39  1  0
 12 40  1  0
 12 41  1  0
 12 42  1  0
 13 43  1  1
 14 44  1  0
 14 45  1  0
 15 46  1  1
 17 47  1  0
 17 48  1  0
 17 49  1  0
 18 50  1  0
 20 51  1  0
 21 52  1  0
 22 53  1  0
 24 54  1  0
 30 55  1  0
 32 56  1  0
M  END
$$$$
