PDB_DB00293_98
     RDKit          3D

 54 56  0  0  0  0  0  0  0  0999 V2000
    7.9140   -9.5210  -16.2400 N   0  0  0  0  0  0  0  0  0  0  0  0
    6.9710   -8.6500  -16.7190 C   0  0  0  0  0  0  0  0  0  0  0  0
    7.3450   -7.5230  -17.5690 C   0  0  0  0  0  0  0  0  0  0  0  0
    5.6550   -8.8230  -16.4010 N   0  0  0  0  0  0  0  0  0  0  0  0
    5.2390   -9.8540  -15.6180 C   0  0  0  0  0  0  0  0  0  0  0  0
    3.9000   -9.9560  -15.3170 O   0  0  0  0  0  0  0  0  0  0  0  0
    6.1670  -10.7940  -15.1090 C   0  0  0  0  0  0  0  0  0  0  0  0
    5.7820  -11.9100  -14.3110 C   0  0  0  0  0  0  0  0  0  0  0  0
    6.7750  -12.8340  -13.8320 C   0  0  0  0  0  0  0  0  0  0  0  0
    8.1500  -12.6070  -14.1620 C   0  0  0  0  0  0  0  0  0  0  0  0
    8.5380  -11.4970  -14.9620 C   0  0  0  0  0  0  0  0  0  0  0  0
    7.5570  -10.5800  -15.4520 C   0  0  0  0  0  0  0  0  0  0  0  0
    6.4440  -14.0500  -13.0010 C   0  0  0  0  0  0  0  0  0  0  0  0
    5.0080  -14.3100  -12.6730 N   0  0  0  0  0  0  0  0  0  0  0  0
    2.8570  -15.4280  -15.7030 C   0  0  0  0  0  0  0  0  0  0  0  0
    4.4410  -14.9970  -15.2820 S   0  0  0  0  0  0  0  0  0  0  0  0
    4.0860  -14.7200  -13.6150 C   0  0  0  0  0  0  0  0  0  0  0  0
    2.7450  -14.9590  -13.3760 C   0  0  0  0  0  0  0  0  0  0  0  0
    2.0160  -15.3820  -14.6180 C   0  0  0  0  0  0  0  0  0  0  0  0
    2.4390  -15.7830  -17.0400 C   0  0  0  0  0  0  0  0  0  0  0  0
    3.2760  -15.7900  -17.9570 O   0  0  0  0  0  0  0  0  0  0  0  0
    1.1570  -16.0880  -17.2350 N   0  0  0  0  0  0  0  0  0  0  0  0
    0.5580  -16.4650  -18.5290 C   0  0  1  0  0  0  0  0  0  0  0  0
    0.3820  -17.9600  -18.7510 C   0  0  0  0  0  0  0  0  0  0  0  0
    0.9110  -18.6510  -19.9700 C   0  0  0  0  0  0  0  0  0  0  0  0
    1.2750  -20.0800  -19.5880 C   0  0  0  0  0  0  0  0  0  0  0  0
    2.2770  -20.2940  -18.8920 O   0  0  0  0  0  0  0  0  0  0  0  0
    0.5680  -21.0080  -19.9810 O   0  0  0  0  0  0  0  0  0  0  0  0
   -0.8170  -15.8220  -18.5760 C   0  0  0  0  0  0  0  0  0  0  0  0
   -1.4170  -15.6040  -17.5080 O   0  0  0  0  0  0  0  0  0  0  0  0
   -1.2970  -15.5300  -19.6700 O   0  0  0  0  0  0  0  0  0  0  0  0
    4.6120  -14.1030  -11.2770 C   0  0  0  0  0  0  0  0  0  0  0  0
    8.9059   -9.3760  -16.4768 H   0  0  0  0  0  0  0  0  0  0  0  0
    7.6290   -6.6671  -16.9391 H   0  0  0  0  0  0  0  0  0  0  0  0
    8.1963   -7.8094  -18.2041 H   0  0  0  0  0  0  0  0  0  0  0  0
    6.4914   -7.2436  -18.2041 H   0  0  0  0  0  0  0  0  0  0  0  0
    4.7222  -12.0654  -14.0605 H   0  0  0  0  0  0  0  0  0  0  0  0
    8.9178  -13.3019  -13.7910 H   0  0  0  0  0  0  0  0  0  0  0  0
    9.5997  -11.3432  -15.2052 H   0  0  0  0  0  0  0  0  0  0  0  0
    6.8191  -14.9293  -13.5452 H   0  0  0  0  0  0  0  0  0  0  0  0
    6.9155  -13.8522  -12.0271 H   0  0  0  0  0  0  0  0  0  0  0  0
    2.2682  -14.8516  -12.3905 H   0  0  0  0  0  0  0  0  0  0  0  0
    0.9437  -15.6245  -14.6547 H   0  0  0  0  0  0  0  0  0  0  0  0
    0.5335  -16.0581  -16.4157 H   0  0  0  0  0  0  0  0  0  0  0  0
    1.2480  -16.1244  -19.3150 H   0  0  0  0  0  0  0  0  0  0  0  0
    0.8508  -18.4562  -17.8885 H   0  0  0  0  0  0  0  0  0  0  0  0
   -0.7056  -18.0451  -18.8921 H   0  0  0  0  0  0  0  0  0  0  0  0
    0.1415  -18.6604  -20.7559 H   0  0  0  0  0  0  0  0  0  0  0  0
    1.7972  -18.1226  -20.3513 H   0  0  0  0  0  0  0  0  0  0  0  0
    2.5169  -21.2213  -18.6416 H   0  0  0  0  0  0  0  0  0  0  0  0
   -2.3141  -15.1855  -17.5207 H   0  0  0  0  0  0  0  0  0  0  0  0
    5.3883  -14.5088  -10.6116 H   0  0  0  0  0  0  0  0  0  0  0  0
    4.4913  -13.0265  -11.0859 H   0  0  0  0  0  0  0  0  0  0  0  0
    3.6592  -14.6184  -11.0859 H   0  0  0  0  0  0  0  0  0  0  0  0
  1  2  1  0
  2  3  1  0
  2  4  2  0
  4  5  1  0
  5  6  2  0
  5  7  1  0
  7  8  1  0
  8  9  2  0
  9 10  1  0
 10 11  2  0
  1 12  1  0
  7 12  2  0
 11 12  1  0
  9 13  1  0
 13 14  1  0
 15 16  1  0
 14 17  1  0
 16 17  1  0
 17 18  2  0
 15 19  2  0
 18 19  1  0
 15 20  1  0
 20 21  2  0
 20 22  1  0
 22 23  1  0
 23 24  1  0
 24 25  1  0
 25 26  1  0
 26 27  1  0
 26 28  2  0
 23 29  1  0
 29 30  1  0
 29 31  2  0
 14 32  1  0
  1 33  1  0
  3 34  1  0
  3 35  1  0
  3 36  1  0
  8 37  1  0
 10 38  1  0
 11 39  1  0
 13 40  1  0
 13 41  1  0
 18 42  1  0
 19 43  1  0
 22 44  1  0
 23 45  1  6
 24 46  1  0
 24 47  1  0
 25 48  1  0
 25 49  1  0
 27 50  1  0
 30 51  1  0
 32 52  1  0
 32 53  1  0
 32 54  1  0
M  END
$$$$
