PDB_DB00819_89
     RDKit          3D

 19 19  0  0  0  0  0  0  0  0999 V2000
    4.2240   17.8160  -16.5410 C   0  0  0  0  0  0  0  0  0  0  0  0
    3.9770   20.0920  -15.9470 C   0  0  0  0  0  0  0  0  0  0  0  0
    2.5530   21.9610  -15.3470 C   0  0  0  0  0  0  0  0  0  0  0  0
    2.6840   23.1590  -14.4420 C   0  0  0  0  0  0  0  0  0  0  0  0
    5.2380   15.9060  -18.1670 N   0  0  0  0  0  0  0  0  0  0  0  0
    5.1680   19.5770  -15.5250 N   0  0  0  0  0  0  0  0  0  0  0  0
    5.3340   18.1790  -15.8820 N   0  0  0  0  0  0  0  0  0  0  0  0
    3.7070   21.4730  -15.8410 N   0  0  0  0  0  0  0  0  0  0  0  0
    4.1400   15.3180  -15.9720 O   0  0  0  0  0  0  0  0  0  0  0  0
    2.7720   16.1180  -17.8570 O   0  0  0  0  0  0  0  0  0  0  0  0
    1.4430   21.4700  -15.6260 O   0  0  0  0  0  0  0  0  0  0  0  0
    4.0270   16.1930  -17.1230 S   0  0  0  0  0  0  0  0  0  0  0  0
    3.0390   19.0510  -16.7400 S   0  0  0  0  0  0  0  0  0  0  0  0
    2.6482   22.8314  -13.3925 H   0  0  0  0  0  0  0  0  0  0  0  0
    3.6425   23.6624  -14.6365 H   0  0  0  0  0  0  0  0  0  0  0  0
    1.8569   23.8576  -14.6365 H   0  0  0  0  0  0  0  0  0  0  0  0
    6.1012   15.7014  -17.6437 H   0  0  0  0  0  0  0  0  0  0  0  0
    4.9964   15.0990  -18.7596 H   0  0  0  0  0  0  0  0  0  0  0  0
    4.4264   22.1393  -16.1563 H   0  0  0  0  0  0  0  0  0  0  0  0
  3  4  1  0
  2  6  2  0
  1  7  2  0
  6  7  1  0
  2  8  1  0
  3  8  1  0
  3 11  2  0
  1 12  1  0
  5 12  1  0
  9 12  2  0
 10 12  2  0
  1 13  1  0
  2 13  1  0
  4 14  1  0
  4 15  1  0
  4 16  1  0
  5 17  1  0
  5 18  1  0
  8 19  1  0
M  END
$$$$
