PDB_DB00452_84
     RDKit          3D

 88 91  0  0  0  0  0  0  0  0999 V2000
  -94.8290   -3.8200    3.5230 C   0  0  2  0  0  0  0  0  0  0  0  0
  -95.8790   -4.6410    3.0270 O   0  0  0  0  0  0  0  0  0  0  0  0
  -93.7750   -4.7390    4.1090 C   0  0  2  0  0  0  0  0  0  0  0  0
  -93.6400   -5.8530    3.2030 N   0  0  0  0  0  0  0  0  0  0  0  0
  -94.1610   -5.3230    5.4570 C   0  0  1  0  0  0  0  0  0  0  0  0
  -92.9580   -5.7220    6.1140 O   0  0  0  0  0  0  0  0  0  0  0  0
  -94.9000   -4.3330    6.3420 C   0  0  2  0  0  0  0  0  0  0  0  0
  -95.5040   -5.0190    7.4370 O   0  0  0  0  0  0  0  0  0  0  0  0
  -95.9960   -3.6650    5.5450 C   0  0  2  0  0  0  0  0  0  0  0  0
  -95.3510   -2.9370    4.5110 O   0  0  0  0  0  0  0  0  0  0  0  0
  -96.8410   -2.7490    6.4130 C   0  0  0  0  0  0  0  0  0  0  0  0
  -98.5350   -3.4390   -0.0850 C   0  0  1  0  0  0  0  0  0  0  0  0
  -99.3430   -2.4300   -0.7600 N   0  0  0  0  0  0  0  0  0  0  0  0
  -97.0510   -3.0470   -0.0970 C   0  0  1  0  0  0  0  0  0  0  0  0
  -96.2190   -3.9390    0.8080 C   0  0  1  0  0  0  0  0  0  0  0  0
  -94.8800   -3.4700    0.8420 O   0  0  0  0  0  0  0  0  0  0  0  0
  -96.7720   -3.8990    2.2150 C   0  0  1  0  0  0  0  0  0  0  0  0
  -98.1680   -4.5050    2.2060 C   0  0  1  0  0  0  0  0  0  0  0  0
  -98.7130   -4.6020    3.5470 N   0  0  0  0  0  0  0  0  0  0  0  0
  -99.0790   -3.6430    1.3350 C   0  0  0  0  0  0  0  0  0  0  0  0
  -93.9230   -4.4090    0.3780 C   0  0  1  0  0  0  0  0  0  0  0  0
  -92.8190   -3.6460   -0.3280 C   0  0  1  0  0  0  0  0  0  0  0  0
  -91.5680   -3.9320    0.4590 C   0  0  1  0  0  0  0  0  0  0  0  0
  -91.8950   -5.2000    1.2070 C   0  0  2  0  0  0  0  0  0  0  0  0
  -93.3010   -5.0910    1.4700 O   0  0  0  0  0  0  0  0  0  0  0  0
  -91.0680   -5.3120    2.4770 C   0  0  0  0  0  0  0  0  0  0  0  0
  -88.0530   -0.9810   -1.7830 C   0  0  1  0  0  0  0  0  0  0  0  0
  -89.5500   -0.7680   -1.9290 C   0  0  1  0  0  0  0  0  0  0  0  0
  -90.3190   -2.0700   -1.7280 C   0  0  2  0  0  0  0  0  0  0  0  0
  -89.8240   -2.8340   -0.5110 C   0  0  1  0  0  0  0  0  0  0  0  0
  -90.4870   -4.0900   -0.4370 O   0  0  0  0  0  0  0  0  0  0  0  0
  -87.7370   -1.7700   -0.5270 C   0  0  1  0  0  0  0  0  0  0  0  0
  -88.4150   -3.0190   -0.5720 O   0  0  0  0  0  0  0  0  0  0  0  0
  -86.2420   -2.0180   -0.4250 C   0  0  0  0  0  0  0  0  0  0  0  0
  -96.0780   -1.5620    6.7250 N   0  0  0  0  0  0  0  0  0  0  0  0
  -92.6300   -4.1560   -1.6440 O   0  0  0  0  0  0  0  0  0  0  0  0
  -89.9670    0.1860   -0.9540 O   0  0  0  0  0  0  0  0  0  0  0  0
  -87.5680   -1.7240   -2.9000 O   0  0  0  0  0  0  0  0  0  0  0  0
  -91.6950   -6.2790    3.3250 O   0  0  0  0  0  0  0  0  0  0  0  0
  -96.5010   -3.1440   -1.4120 O   0  0  0  0  0  0  0  0  0  0  0  0
  -85.9240   -2.4470    0.9210 N   0  0  0  0  0  0  0  0  0  0  0  0
  -90.1870   -2.9170   -2.8940 N   0  0  0  0  0  0  0  0  0  0  0  0
  -94.3829   -3.2064    2.7264 H   0  0  0  0  0  0  0  0  0  0  0  0
  -92.8572   -4.1482    4.2455 H   0  0  0  0  0  0  0  0  0  0  0  0
  -93.5345   -6.7238    3.7429 H   0  0  0  0  0  0  0  0  0  0  0  0
  -94.4794   -5.9166    2.6095 H   0  0  0  0  0  0  0  0  0  0  0  0
  -94.8432   -6.1683    5.2837 H   0  0  0  0  0  0  0  0  0  0  0  0
  -93.0876   -5.6790    7.0945 H   0  0  0  0  0  0  0  0  0  0  0  0
  -94.1827   -3.5858    6.7124 H   0  0  0  0  0  0  0  0  0  0  0  0
  -95.1702   -4.6399    8.2885 H   0  0  0  0  0  0  0  0  0  0  0  0
  -96.6887   -4.4137    5.1331 H   0  0  0  0  0  0  0  0  0  0  0  0
  -97.7559   -2.4676    5.8710 H   0  0  0  0  0  0  0  0  0  0  0  0
  -97.1178   -3.2683    7.3424 H   0  0  0  0  0  0  0  0  0  0  0  0
  -98.6035   -4.3975   -0.6204 H   0  0  0  0  0  0  0  0  0  0  0  0
  -99.8142   -1.8416   -0.0581 H   0  0  0  0  0  0  0  0  0  0  0  0
  -98.7363   -1.8422   -1.3493 H   0  0  0  0  0  0  0  0  0  0  0  0
  -97.0122   -2.0087    0.2642 H   0  0  0  0  0  0  0  0  0  0  0  0
  -96.2517   -4.9669    0.4177 H   0  0  0  0  0  0  0  0  0  0  0  0
  -96.8570   -2.8748    2.6072 H   0  0  0  0  0  0  0  0  0  0  0  0
  -98.1054   -5.5241    1.7967 H   0  0  0  0  0  0  0  0  0  0  0  0
  -97.9582   -4.4677    4.2349 H   0  0  0  0  0  0  0  0  0  0  0  0
  -99.4312   -3.8756    3.6791 H   0  0  0  0  0  0  0  0  0  0  0  0
 -100.0625   -4.1309    1.2666 H   0  0  0  0  0  0  0  0  0  0  0  0
  -99.1437   -2.6518    1.8076 H   0  0  0  0  0  0  0  0  0  0  0  0
  -94.4347   -5.1297   -0.2768 H   0  0  0  0  0  0  0  0  0  0  0  0
  -93.0592   -2.5745   -0.3934 H   0  0  0  0  0  0  0  0  0  0  0  0
  -91.2712   -3.1316    1.1527 H   0  0  0  0  0  0  0  0  0  0  0  0
  -91.6578   -6.1127    0.6407 H   0  0  0  0  0  0  0  0  0  0  0  0
  -90.0465   -5.6372    2.2306 H   0  0  0  0  0  0  0  0  0  0  0  0
  -91.0097   -4.3376    2.9840 H   0  0  0  0  0  0  0  0  0  0  0  0
  -87.5735    0.0074   -1.7271 H   0  0  0  0  0  0  0  0  0  0  0  0
  -89.7609   -0.4055   -2.9459 H   0  0  0  0  0  0  0  0  0  0  0  0
  -91.3741   -1.8014   -1.5714 H   0  0  0  0  0  0  0  0  0  0  0  0
  -90.0510   -2.2507    0.3935 H   0  0  0  0  0  0  0  0  0  0  0  0
  -88.0677   -1.1934    0.3495 H   0  0  0  0  0  0  0  0  0  0  0  0
  -85.9488   -2.8007   -1.1401 H   0  0  0  0  0  0  0  0  0  0  0  0
  -85.6958   -1.0920   -0.6578 H   0  0  0  0  0  0  0  0  0  0  0  0
  -96.0101   -1.4564    7.7473 H   0  0  0  0  0  0  0  0  0  0  0  0
  -95.1326   -1.6466    6.3250 H   0  0  0  0  0  0  0  0  0  0  0  0
  -92.2864   -5.0830   -1.5925 H   0  0  0  0  0  0  0  0  0  0  0  0
  -89.8079   -0.1779   -0.0471 H   0  0  0  0  0  0  0  0  0  0  0  0
  -87.0563   -2.5079   -2.5778 H   0  0  0  0  0  0  0  0  0  0  0  0
  -91.5387   -6.0379    4.2724 H   0  0  0  0  0  0  0  0  0  0  0  0
  -95.5279   -3.3156   -1.3509 H   0  0  0  0  0  0  0  0  0  0  0  0
  -86.3861   -1.8236    1.5982 H   0  0  0  0  0  0  0  0  0  0  0  0
  -86.2555   -3.4121    1.0611 H   0  0  0  0  0  0  0  0  0  0  0  0
  -90.0352   -3.8910   -2.5954 H   0  0  0  0  0  0  0  0  0  0  0  0
  -91.0469   -2.8609   -3.4582 H   0  0  0  0  0  0  0  0  0  0  0  0
  2  1  1  0
  3  1  1  0
  4  3  1  0
  5  3  1  0
  6  5  1  0
  7  5  1  0
  8  7  1  0
  9  7  1  0
 10  1  1  0
 10  9  1  0
 11  9  1  0
 13 12  1  0
 14 12  1  0
 15 14  1  0
 16 15  1  0
 17 15  1  0
 17  2  1  0
 18 17  1  0
 19 18  1  0
 20 18  1  0
 20 12  1  0
 21 16  1  0
 22 21  1  0
 23 22  1  0
 24 23  1  0
 25 21  1  0
 25 24  1  0
 26 24  1  0
 28 27  1  0
 29 28  1  0
 30 29  1  0
 31 30  1  0
 31 23  1  0
 32 27  1  0
 33 32  1  0
 33 30  1  0
 34 32  1  0
 35 11  1  0
 36 22  1  0
 37 28  1  0
 38 27  1  0
 39 26  1  0
 40 14  1  0
 41 34  1  0
 42 29  1  0
  1 43  1  6
  3 44  1  1
  4 45  1  0
  4 46  1  0
  5 47  1  6
  6 48  1  0
  7 49  1  1
  8 50  1  0
  9 51  1  6
 11 52  1  0
 11 53  1  0
 12 54  1  6
 13 55  1  0
 13 56  1  0
 14 57  1  1
 15 58  1  6
 17 59  1  1
 18 60  1  6
 19 61  1  0
 19 62  1  0
 20 63  1  0
 20 64  1  0
 21 65  1  6
 22 66  1  6
 23 67  1  1
 24 68  1  6
 26 69  1  0
 26 70  1  0
 27 71  1  1
 28 72  1  6
 29 73  1  1
 30 74  1  1
 32 75  1  1
 34 76  1  0
 34 77  1  0
 35 78  1  0
 35 79  1  0
 36 80  1  0
 37 81  1  0
 38 82  1  0
 39 83  1  0
 40 84  1  0
 41 85  1  0
 41 86  1  0
 42 87  1  0
 42 88  1  0
M  END
$$$$
