PDB_DB00703_94
     RDKit          3D

 22 22  0  0  0  0  0  0  0  0999 V2000
    5.2940   16.2380  -18.0720 N   0  0  0  0  0  0  0  0  0  0  0  0
    4.0330   16.3890  -17.0610 S   0  0  0  0  0  0  0  0  0  0  0  0
    4.1170   15.4480  -15.9910 O   0  0  0  0  0  0  0  0  0  0  0  0
    2.8370   16.1340  -17.8140 O   0  0  0  0  0  0  0  0  0  0  0  0
    4.0120   17.9430  -16.4360 C   0  0  0  0  0  0  0  0  0  0  0  0
    2.8840   19.1480  -17.0400 S   0  0  0  0  0  0  0  0  0  0  0  0
    3.6290   20.1990  -15.8670 C   0  0  0  0  0  0  0  0  0  0  0  0
    4.6130   19.6890  -15.1300 N   0  0  0  0  0  0  0  0  0  0  0  0
    5.4450   20.3020  -14.0530 C   0  0  0  0  0  0  0  0  0  0  0  0
    4.8700   18.3350  -15.4510 N   0  0  0  0  0  0  0  0  0  0  0  0
    3.2530   21.4940  -15.7200 N   0  0  0  0  0  0  0  0  0  0  0  0
    2.1070   21.8530  -15.1520 C   0  0  0  0  0  0  0  0  0  0  0  0
    1.0250   21.5870  -15.6490 O   0  0  0  0  0  0  0  0  0  0  0  0
    2.2330   22.6310  -13.8740 C   0  0  0  0  0  0  0  0  0  0  0  0
    6.1612   16.1342  -17.5261 H   0  0  0  0  0  0  0  0  0  0  0  0
    5.1605   15.4070  -18.6657 H   0  0  0  0  0  0  0  0  0  0  0  0
    5.0469   20.0087  -13.0704 H   0  0  0  0  0  0  0  0  0  0  0  0
    6.4834   19.9514  -14.1475 H   0  0  0  0  0  0  0  0  0  0  0  0
    5.4179   21.3976  -14.1475 H   0  0  0  0  0  0  0  0  0  0  0  0
    2.1226   21.9496  -13.0175 H   0  0  0  0  0  0  0  0  0  0  0  0
    3.2209   23.1131  -13.8341 H   0  0  0  0  0  0  0  0  0  0  0  0
    1.4477   23.4003  -13.8341 H   0  0  0  0  0  0  0  0  0  0  0  0
  1  2  1  0
  2  3  2  0
  2  4  2  0
  2  5  1  0
  5  6  1  0
  6  7  1  0
  7  8  1  0
  8  9  1  0
  5 10  2  0
  8 10  1  0
  7 11  2  0
 11 12  1  0
 12 13  2  0
 12 14  1  0
  1 15  1  0
  1 16  1  0
  9 17  1  0
  9 18  1  0
  9 19  1  0
 14 20  1  0
 14 21  1  0
 14 22  1  0
M  END
$$$$
