PDB_DB00759_97
     RDKit          3D

 56 59  0  0  0  0  0  0  0  0999 V2000
 -122.3980   28.3020  -16.9060 C   0  0  0  0  0  0  0  0  0  0  0  0
 -121.7060   28.8600  -17.7410 O   0  0  0  0  0  0  0  0  0  0  0  0
 -122.1490   28.3190  -15.4460 C   0  0  0  0  0  0  0  0  0  0  0  0
 -121.2910   29.3470  -14.8200 C   0  0  0  0  0  0  0  0  0  0  0  0
 -120.9360   29.2460  -13.6190 O   0  0  0  0  0  0  0  0  0  0  0  0
 -120.8380   30.3380  -15.5820 N   0  0  0  0  0  0  0  0  0  0  0  0
 -122.5730   27.1870  -14.7040 C   0  0  0  0  0  0  0  0  0  0  0  0
 -122.5460   27.2330  -13.3510 O   0  0  0  0  0  0  0  0  0  0  0  0
 -123.0480   25.9020  -15.3700 C   0  0  1  0  0  0  0  0  0  0  0  0
 -124.1180   25.3560  -14.5160 N   0  0  0  0  0  0  0  0  0  0  0  0
 -125.4660   25.9290  -14.6250 C   0  0  0  0  0  0  0  0  0  0  0  0
 -124.1720   23.8960  -14.4340 C   0  0  0  0  0  0  0  0  0  0  0  0
 -123.3800   25.9670  -16.8850 C   0  0  2  0  0  0  0  0  0  0  0  0
 -122.1750   25.3400  -17.6070 C   0  0  0  0  0  0  0  0  0  0  0  0
 -122.3640   25.2790  -19.1420 C   0  0  2  0  0  0  0  0  0  0  0  0
 -121.0450   25.1200  -19.9290 C   0  0  2  0  0  0  0  0  0  0  0  0
 -120.0970   24.0550  -19.3810 C   0  0  0  0  0  0  0  0  0  0  0  0
 -120.3480   26.3690  -19.7870 O   0  0  0  0  0  0  0  0  0  0  0  0
 -121.3560   24.9060  -21.4160 C   0  0  0  0  0  0  0  0  0  0  0  0
 -120.6030   24.0490  -22.2160 C   0  0  0  0  0  0  0  0  0  0  0  0
 -120.9170   23.8570  -23.5520 C   0  0  0  0  0  0  0  0  0  0  0  0
 -121.9960   24.5140  -24.1180 C   0  0  0  0  0  0  0  0  0  0  0  0
 -122.7660   25.3830  -23.3500 C   0  0  0  0  0  0  0  0  0  0  0  0
 -123.8020   26.0150  -23.9650 O   0  0  0  0  0  0  0  0  0  0  0  0
 -122.4530   25.6050  -21.9810 C   0  0  0  0  0  0  0  0  0  0  0  0
 -123.2010   26.5920  -21.1760 C   0  0  0  0  0  0  0  0  0  0  0  0
 -123.8330   27.4990  -21.7110 O   0  0  0  0  0  0  0  0  0  0  0  0
 -123.1390   26.4640  -19.6910 C   0  0  0  0  0  0  0  0  0  0  0  0
 -123.6850   27.4210  -18.8960 C   0  0  0  0  0  0  0  0  0  0  0  0
 -124.4020   28.4300  -19.3460 O   0  0  0  0  0  0  0  0  0  0  0  0
 -123.5760   27.4070  -17.3780 C   0  0  2  0  0  0  0  0  0  0  0  0
 -124.7750   27.9500  -16.8420 O   0  0  0  0  0  0  0  0  0  0  0  0
 -120.2380   31.0688  -15.1735 H   0  0  0  0  0  0  0  0  0  0  0  0
 -121.0870   30.3749  -16.5808 H   0  0  0  0  0  0  0  0  0  0  0  0
 -122.8397   26.4487  -12.8231 H   0  0  0  0  0  0  0  0  0  0  0  0
 -122.1985   25.2054  -15.4250 H   0  0  0  0  0  0  0  0  0  0  0  0
 -125.8733   26.1022  -13.6180 H   0  0  0  0  0  0  0  0  0  0  0  0
 -125.4157   26.8836  -15.1693 H   0  0  0  0  0  0  0  0  0  0  0  0
 -126.1185   25.2304  -15.1693 H   0  0  0  0  0  0  0  0  0  0  0  0
 -124.1834   23.5882  -13.3780 H   0  0  0  0  0  0  0  0  0  0  0  0
 -125.0841   23.5343  -14.9312 H   0  0  0  0  0  0  0  0  0  0  0  0
 -123.2891   23.4679  -14.9312 H   0  0  0  0  0  0  0  0  0  0  0  0
 -124.3227   25.4370  -17.0860 H   0  0  0  0  0  0  0  0  0  0  0  0
 -121.2806   25.9411  -17.3862 H   0  0  0  0  0  0  0  0  0  0  0  0
 -122.0707   24.3070  -17.2437 H   0  0  0  0  0  0  0  0  0  0  0  0
 -122.9577   24.3658  -19.2956 H   0  0  0  0  0  0  0  0  0  0  0  0
 -120.1168   24.0773  -18.2814 H   0  0  0  0  0  0  0  0  0  0  0  0
 -120.4166   23.0632  -19.7335 H   0  0  0  0  0  0  0  0  0  0  0  0
 -119.0749   24.2576  -19.7335 H   0  0  0  0  0  0  0  0  0  0  0  0
 -120.2329   26.5752  -18.8256 H   0  0  0  0  0  0  0  0  0  0  0  0
 -119.7452   23.5161  -21.7799 H   0  0  0  0  0  0  0  0  0  0  0  0
 -120.3057   23.1791  -24.1658 H   0  0  0  0  0  0  0  0  0  0  0  0
 -122.2454   24.3491  -25.1766 H   0  0  0  0  0  0  0  0  0  0  0  0
 -124.3737   26.6410  -23.4537 H   0  0  0  0  0  0  0  0  0  0  0  0
 -124.7726   29.0950  -18.7132 H   0  0  0  0  0  0  0  0  0  0  0  0
 -124.7327   27.9309  -15.8531 H   0  0  0  0  0  0  0  0  0  0  0  0
  2  1  2  0
  3  1  1  0
  4  3  1  0
  5  4  2  0
  6  4  1  0
  7  3  2  0
  8  7  1  0
  9  7  1  0
 10  9  1  0
 11 10  1  0
 12 10  1  0
 13  9  1  0
 14 13  1  0
 15 14  1  0
 16 15  1  0
 17 16  1  0
 16 18  1  6
 19 16  1  0
 20 19  2  0
 21 20  1  0
 22 21  2  0
 23 22  1  0
 24 23  1  0
 25 23  2  0
 25 19  1  0
 26 25  1  0
 27 26  2  0
 28 26  1  0
 28 15  1  0
 29 28  2  0
 30 29  1  0
 31 13  1  0
 31 29  1  0
 31  1  1  0
 31 32  1  1
  6 33  1  0
  6 34  1  0
  8 35  1  0
  9 36  1  6
 11 37  1  0
 11 38  1  0
 11 39  1  0
 12 40  1  0
 12 41  1  0
 12 42  1  0
 13 43  1  1
 14 44  1  0
 14 45  1  0
 15 46  1  1
 17 47  1  0
 17 48  1  0
 17 49  1  0
 18 50  1  0
 20 51  1  0
 21 52  1  0
 22 53  1  0
 24 54  1  0
 30 55  1  0
 32 56  1  0
M  END
$$$$
