PDB_DB00784_99
     RDKit          3D

 33 34  0  0  0  0  0  0  0  0999 V2000
   34.5530    4.1690   60.7920 O   0  0  0  0  0  0  0  0  0  0  0  0
   35.5760    3.6640   61.0880 C   0  0  0  0  0  0  0  0  0  0  0  0
   35.5800    3.2290   62.2100 O   0  0  0  0  0  0  0  0  0  0  0  0
   36.6640    3.5270   60.0620 C   0  0  0  0  0  0  0  0  0  0  0  0
   36.3310    3.8750   58.7840 C   0  0  0  0  0  0  0  0  0  0  0  0
   37.2130    3.7920   57.7670 C   0  0  0  0  0  0  0  0  0  0  0  0
   38.4700    3.3640   58.0160 C   0  0  0  0  0  0  0  0  0  0  0  0
   38.8170    3.0240   59.2710 C   0  0  0  0  0  0  0  0  0  0  0  0
   37.9420    3.0720   60.2970 C   0  0  0  0  0  0  0  0  0  0  0  0
   38.2960    2.6220   61.4940 N   0  0  0  0  0  0  0  0  0  0  0  0
   39.2530    1.7830   61.8760 C   0  0  0  0  0  0  0  0  0  0  0  0
   39.8100    1.9430   63.1160 C   0  0  0  0  0  0  0  0  0  0  0  0
   39.2970    2.9420   64.0680 C   0  0  0  0  0  0  0  0  0  0  0  0
   39.7830    0.8500   61.0260 C   0  0  0  0  0  0  0  0  0  0  0  0
   40.8470    0.0930   61.3930 C   0  0  0  0  0  0  0  0  0  0  0  0
   41.3870    0.2640   62.6180 C   0  0  0  0  0  0  0  0  0  0  0  0
   40.8840    1.1790   63.4710 C   0  0  0  0  0  0  0  0  0  0  0  0
   41.5310    1.3220   64.7920 C   0  0  0  0  0  0  0  0  0  0  0  0
   34.4373    4.5615   59.8905 H   0  0  0  0  0  0  0  0  0  0  0  0
   35.3119    4.2341   58.5777 H   0  0  0  0  0  0  0  0  0  0  0  0
   36.9122    4.0697   56.7460 H   0  0  0  0  0  0  0  0  0  0  0  0
   39.2038    3.2940   57.1996 H   0  0  0  0  0  0  0  0  0  0  0  0
   39.8485    2.6960   59.4670 H   0  0  0  0  0  0  0  0  0  0  0  0
   37.7249    2.9901   62.2681 H   0  0  0  0  0  0  0  0  0  0  0  0
   39.4756    2.5942   65.0962 H   0  0  0  0  0  0  0  0  0  0  0  0
   39.8150    3.8994   63.9096 H   0  0  0  0  0  0  0  0  0  0  0  0
   38.2171    3.0788   63.9096 H   0  0  0  0  0  0  0  0  0  0  0  0
   39.3388    0.7119   60.0292 H   0  0  0  0  0  0  0  0  0  0  0  0
   41.2651   -0.6519   60.7000 H   0  0  0  0  0  0  0  0  0  0  0  0
   42.2470   -0.3499   62.9239 H   0  0  0  0  0  0  0  0  0  0  0  0
   40.7864    1.1574   65.5847 H   0  0  0  0  0  0  0  0  0  0  0  0
   42.3379    0.5805   64.8873 H   0  0  0  0  0  0  0  0  0  0  0  0
   41.9503    2.3345   64.8873 H   0  0  0  0  0  0  0  0  0  0  0  0
  1  2  1  0
  2  3  2  0
  2  4  1  0
  4  5  2  0
  5  6  1  0
  6  7  2  0
  7  8  1  0
  4  9  1  0
  8  9  2  0
  9 10  1  0
 10 11  1  0
 11 12  2  0
 12 13  1  0
 11 14  1  0
 14 15  2  0
 15 16  1  0
 12 17  1  0
 16 17  2  0
 17 18  1  0
  1 19  1  0
  5 20  1  0
  6 21  1  0
  7 22  1  0
  8 23  1  0
 10 24  1  0
 13 25  1  0
 13 26  1  0
 13 27  1  0
 14 28  1  0
 15 29  1  0
 16 30  1  0
 18 31  1  0
 18 32  1  0
 18 33  1  0
M  END
$$$$
