PDB_DB00443_98
     RDKit          3D

 57 60  0  0  0  0  0  0  0  0999 V2000
   18.7310   25.6480   -9.8410 C   0  0  0  0  0  0  0  0  0  0  0  0
   19.4670   25.6080   -8.7340 C   0  0  0  0  0  0  0  0  0  0  0  0
   20.7140   26.4380   -8.6870 C   0  0  0  0  0  0  0  0  0  0  0  0
   21.1290   27.1700   -9.9270 C   0  0  0  0  0  0  0  0  0  0  0  0
   20.3450   27.1590  -11.0030 C   0  0  0  0  0  0  0  0  0  0  0  0
   20.8350   27.9050  -12.2090 C   0  0  0  0  0  0  0  0  0  0  0  0
   20.8250   26.9780  -13.4200 C   0  0  0  0  0  0  0  0  0  0  0  0
   19.5200   26.2020  -13.5720 C   0  0  2  0  0  0  0  0  0  0  0  0
   19.0440   25.5130  -12.2920 C   0  0  1  0  0  0  0  0  0  0  0  0
   19.0230   26.4460  -11.0790 C   0  0  1  0  0  0  0  0  0  0  0  0
   17.8280   24.6040  -12.4540 C   0  0  2  0  0  0  0  0  0  0  0  0
   17.7900   23.7820  -13.7390 C   0  0  0  0  0  0  0  0  0  0  0  0
   18.1270   24.6050  -14.9810 C   0  0  1  0  0  0  0  0  0  0  0  0
   19.4940   25.2520  -14.7660 C   0  0  1  0  0  0  0  0  0  0  0  0
   19.9620   25.7070  -16.1440 C   0  0  0  0  0  0  0  0  0  0  0  0
   19.3570   24.6710  -17.0860 C   0  0  2  0  0  0  0  0  0  0  0  0
   18.4510   23.7880  -16.2310 C   0  0  2  0  0  0  0  0  0  0  0  0
   17.0020   25.5970  -15.2760 C   0  0  0  0  0  0  0  0  0  0  0  0
   17.9310   27.5120  -11.1400 C   0  0  0  0  0  0  0  0  0  0  0  0
   17.2250   23.2900  -16.9800 C   0  0  0  0  0  0  0  0  0  0  0  0
   16.5010   22.0100  -16.5930 C   0  0  0  0  0  0  0  0  0  0  0  0
   20.4420   23.9540  -17.8820 C   0  0  0  0  0  0  0  0  0  0  0  0
   20.0240   24.6050  -12.0180 F   0  0  0  0  0  0  0  0  0  0  0  0
   21.3750   26.5150   -7.6540 O   0  0  0  0  0  0  0  0  0  0  0  0
   16.6370   25.3770  -12.4440 O   0  0  0  0  0  0  0  0  0  0  0  0
   19.1990   22.6320  -15.8800 O   0  0  0  0  0  0  0  0  0  0  0  0
   16.7660   23.9310  -17.9240 O   0  0  0  0  0  0  0  0  0  0  0  0
   15.1480   22.0630  -17.0180 O   0  0  0  0  0  0  0  0  0  0  0  0
   17.8174   25.0355   -9.8506 H   0  0  0  0  0  0  0  0  0  0  0  0
   19.1693   24.9842   -7.8783 H   0  0  0  0  0  0  0  0  0  0  0  0
   22.0829   27.7173   -9.9482 H   0  0  0  0  0  0  0  0  0  0  0  0
   20.1766   28.7651  -12.4004 H   0  0  0  0  0  0  0  0  0  0  0  0
   21.8602   28.2605  -12.0283 H   0  0  0  0  0  0  0  0  0  0  0  0
   20.9791   27.5837  -14.3252 H   0  0  0  0  0  0  0  0  0  0  0  0
   21.6285   26.2411  -13.2743 H   0  0  0  0  0  0  0  0  0  0  0  0
   18.7838   26.9905  -13.7872 H   0  0  0  0  0  0  0  0  0  0  0  0
   17.9061   23.9060  -11.6074 H   0  0  0  0  0  0  0  0  0  0  0  0
   18.5183   22.9621  -13.6529 H   0  0  0  0  0  0  0  0  0  0  0  0
   16.7633   23.4063  -13.8604 H   0  0  0  0  0  0  0  0  0  0  0  0
   20.2778   24.5692  -14.4062 H   0  0  0  0  0  0  0  0  0  0  0  0
   19.5857   26.7147  -16.3740 H   0  0  0  0  0  0  0  0  0  0  0  0
   21.0571   25.7714  -16.2247 H   0  0  0  0  0  0  0  0  0  0  0  0
   18.7358   25.1166  -17.8769 H   0  0  0  0  0  0  0  0  0  0  0  0
   16.5820   25.9673  -14.3292 H   0  0  0  0  0  0  0  0  0  0  0  0
   17.4012   26.4424  -15.8556 H   0  0  0  0  0  0  0  0  0  0  0  0
   16.2132   25.0951  -15.8556 H   0  0  0  0  0  0  0  0  0  0  0  0
   17.6392   27.7969  -10.1184 H   0  0  0  0  0  0  0  0  0  0  0  0
   18.3110   28.3961  -11.6728 H   0  0  0  0  0  0  0  0  0  0  0  0
   17.0563   27.1108  -11.6728 H   0  0  0  0  0  0  0  0  0  0  0  0
   16.9983   21.1529  -17.0706 H   0  0  0  0  0  0  0  0  0  0  0  0
   16.5289   21.8993  -15.4989 H   0  0  0  0  0  0  0  0  0  0  0  0
   21.1546   23.4831  -17.1889 H   0  0  0  0  0  0  0  0  0  0  0  0
   19.9819   23.1815  -18.5157 H   0  0  0  0  0  0  0  0  0  0  0  0
   20.9722   24.6801  -18.5157 H   0  0  0  0  0  0  0  0  0  0  0  0
   16.3657   25.5531  -11.5083 H   0  0  0  0  0  0  0  0  0  0  0  0
   19.2475   22.5571  -14.8940 H   0  0  0  0  0  0  0  0  0  0  0  0
   14.5541   22.0863  -16.2263 H   0  0  0  0  0  0  0  0  0  0  0  0
  1  2  2  0
  2  3  1  0
  3  4  1  0
  4  5  2  0
  5  6  1  0
  6  7  1  0
  7  8  1  0
  8  9  1  0
  1 10  1  0
  5 10  1  0
  9 10  1  0
  9 11  1  0
 11 12  1  0
 12 13  1  0
  8 14  1  0
 13 14  1  0
 14 15  1  0
 15 16  1  0
 13 17  1  0
 16 17  1  0
 13 18  1  6
 10 19  1  6
 17 20  1  0
 20 21  1  0
 16 22  1  0
  9 23  1  1
  3 24  2  0
 11 25  1  0
 17 26  1  1
 20 27  2  0
 21 28  1  0
  1 29  1  0
  2 30  1  0
  4 31  1  0
  6 32  1  0
  6 33  1  0
  7 34  1  0
  7 35  1  0
  8 36  1  6
 11 37  1  1
 12 38  1  0
 12 39  1  0
 14 40  1  1
 15 41  1  0
 15 42  1  0
 16 43  1  6
 18 44  1  0
 18 45  1  0
 18 46  1  0
 19 47  1  0
 19 48  1  0
 19 49  1  0
 21 50  1  0
 21 51  1  0
 22 52  1  0
 22 53  1  0
 22 54  1  0
 25 55  1  0
 26 56  1  0
 28 57  1  0
M  END
$$$$
