PDB_DB06616_96
     RDKit          3D

 65 68  0  0  0  0  0  0  0  0999 V2000
    6.9570   -9.0420   28.5790 C   0  0  0  0  0  0  0  0  0  0  0  0
    9.8210   -4.2070   35.7090 O   0  0  0  0  0  0  0  0  0  0  0  0
    1.4440   -8.6340   26.4410 C   0  0  0  0  0  0  0  0  0  0  0  0
    9.0810   -1.4950   32.1940 N   0  0  0  0  0  0  0  0  0  0  0  0
   12.5950   -3.0910   35.2590 Cl  0  0  0  0  0  0  0  0  0  0  0  0
   11.5210   -3.8960   29.8780 Cl  0  0  0  0  0  0  0  0  0  0  0  0
    8.2340   -2.1420   31.7950 C   0  0  0  0  0  0  0  0  0  0  0  0
    5.7340   -2.5030   31.1820 C   0  0  0  0  0  0  0  0  0  0  0  0
   11.9720   -3.5320   32.5980 C   0  0  0  0  0  0  0  0  0  0  0  0
    9.2610   -4.6150   33.3160 C   0  0  0  0  0  0  0  0  0  0  0  0
    3.8120   -5.3390   29.3980 C   0  0  0  0  0  0  0  0  0  0  0  0
    6.5580   -6.5630   29.5990 C   0  0  0  0  0  0  0  0  0  0  0  0
    0.8280   -7.8870   27.6080 C   0  0  0  0  0  0  0  0  0  0  0  0
    1.8040   -6.8170   28.1030 C   0  0  0  0  0  0  0  0  0  0  0  0
   -3.0540   -9.5810   22.9680 C   0  0  0  0  0  0  0  0  0  0  0  0
    0.4860   -8.9750   24.0540 C   0  0  0  0  0  0  0  0  0  0  0  0
   -0.9730   -8.5960   25.9100 C   0  0  0  0  0  0  0  0  0  0  0  0
   -0.6290   -9.7980   23.3810 C   0  0  0  0  0  0  0  0  0  0  0  0
   -2.0170   -9.4550   25.2650 C   0  0  0  0  0  0  0  0  0  0  0  0
    4.6610   -3.3050   30.6850 N   0  0  0  0  0  0  0  0  0  0  0  0
    8.7810   -4.9840   30.8340 N   0  0  0  0  0  0  0  0  0  0  0  0
    5.7800   -8.4120   28.1930 O   0  0  0  0  0  0  0  0  0  0  0  0
    3.1220   -7.2710   27.9760 O   0  0  0  0  0  0  0  0  0  0  0  0
   10.1930   -4.1440   34.3860 C   0  0  0  0  0  0  0  0  0  0  0  0
   11.5370   -3.6130   34.0180 C   0  0  0  0  0  0  0  0  0  0  0  0
   11.0430   -3.9960   31.5320 C   0  0  0  0  0  0  0  0  0  0  0  0
    7.1340   -3.0190   31.2750 C   0  0  0  0  0  0  0  0  0  0  0  0
    9.6890   -4.5380   31.8770 C   0  0  0  0  0  0  0  0  0  0  0  0
    5.4750   -7.2300   28.8120 C   0  0  0  0  0  0  0  0  0  0  0  0
    4.1220   -6.6330   28.7140 C   0  0  0  0  0  0  0  0  0  0  0  0
    7.4280   -4.4310   30.8180 C   0  0  0  0  0  0  0  0  0  0  0  0
    4.8830   -4.6450   30.2200 C   0  0  0  0  0  0  0  0  0  0  0  0
    6.2650   -5.2670   30.2930 C   0  0  0  0  0  0  0  0  0  0  0  0
    0.3410   -9.0430   25.5120 N   0  0  0  0  0  0  0  0  0  0  0  0
   -1.9120   -9.3270   23.8420 N   0  0  0  0  0  0  0  0  0  0  0  0
    8.4850   -4.4440   36.0290 C   0  0  0  0  0  0  0  0  0  0  0  0
    7.0136   -9.0723   29.6771 H   0  0  0  0  0  0  0  0  0  0  0  0
    6.9707  -10.0680   28.1827 H   0  0  0  0  0  0  0  0  0  0  0  0
    7.8184   -8.4843   28.1827 H   0  0  0  0  0  0  0  0  0  0  0  0
    2.1527   -7.9796   25.9123 H   0  0  0  0  0  0  0  0  0  0  0  0
    1.9860   -9.5209   26.8011 H   0  0  0  0  0  0  0  0  0  0  0  0
    5.5233   -1.4733   31.5065 H   0  0  0  0  0  0  0  0  0  0  0  0
   12.9649   -3.1353   32.3398 H   0  0  0  0  0  0  0  0  0  0  0  0
    8.2705   -5.0145   33.5795 H   0  0  0  0  0  0  0  0  0  0  0  0
    2.8112   -4.8919   29.3055 H   0  0  0  0  0  0  0  0  0  0  0  0
    7.5572   -7.0179   29.6677 H   0  0  0  0  0  0  0  0  0  0  0  0
   -0.1075   -7.4078   27.2836 H   0  0  0  0  0  0  0  0  0  0  0  0
    0.6150   -8.5937   28.4236 H   0  0  0  0  0  0  0  0  0  0  0  0
    1.6751   -5.9027   27.5051 H   0  0  0  0  0  0  0  0  0  0  0  0
    1.5975   -6.6043   29.1623 H   0  0  0  0  0  0  0  0  0  0  0  0
   -3.9466   -9.7795   23.5794 H   0  0  0  0  0  0  0  0  0  0  0  0
   -3.2328   -8.7007   22.3331 H   0  0  0  0  0  0  0  0  0  0  0  0
   -2.8428  -10.4541   22.3331 H   0  0  0  0  0  0  0  0  0  0  0  0
    1.4660   -9.3823   23.7649 H   0  0  0  0  0  0  0  0  0  0  0  0
    0.4106   -7.9267   23.7295 H   0  0  0  0  0  0  0  0  0  0  0  0
   -1.1143   -7.5513   25.5959 H   0  0  0  0  0  0  0  0  0  0  0  0
   -1.0664   -8.6695   27.0036 H   0  0  0  0  0  0  0  0  0  0  0  0
   -0.5648   -9.6804   22.2892 H   0  0  0  0  0  0  0  0  0  0  0  0
   -0.5111  -10.8605   23.6402 H   0  0  0  0  0  0  0  0  0  0  0  0
   -1.8606  -10.5049   25.5534 H   0  0  0  0  0  0  0  0  0  0  0  0
   -3.0167   -9.1354   25.5942 H   0  0  0  0  0  0  0  0  0  0  0  0
    9.0819   -5.6697   30.1267 H   0  0  0  0  0  0  0  0  0  0  0  0
    8.3680   -4.4648   37.1226 H   0  0  0  0  0  0  0  0  0  0  0  0
    7.8595   -3.6428   35.6085 H   0  0  0  0  0  0  0  0  0  0  0  0
    8.1733   -5.4115   35.6085 H   0  0  0  0  0  0  0  0  0  0  0  0
  4  7  3  0
  3 13  1  0
 13 14  1  0
 16 18  1  0
 17 19  1  0
  8 20  2  0
  1 22  1  0
 14 23  1  0
  2 24  1  0
 10 24  2  0
  5 25  1  0
  9 25  2  0
 24 25  1  0
  6 26  1  0
  9 26  1  0
  7 27  1  0
  8 27  1  0
 10 28  1  0
 21 28  1  0
 26 28  2  0
 12 29  1  0
 22 29  1  0
 11 30  1  0
 23 30  1  0
 29 30  2  0
 21 31  1  0
 27 31  2  0
 11 32  2  0
 20 32  1  0
 12 33  2  0
 31 33  1  0
 32 33  1  0
  3 34  1  0
 16 34  1  0
 17 34  1  0
 15 35  1  0
 18 35  1  0
 19 35  1  0
  2 36  1  0
  1 37  1  0
  1 38  1  0
  1 39  1  0
  3 40  1  0
  3 41  1  0
  8 42  1  0
  9 43  1  0
 10 44  1  0
 11 45  1  0
 12 46  1  0
 13 47  1  0
 13 48  1  0
 14 49  1  0
 14 50  1  0
 15 51  1  0
 15 52  1  0
 15 53  1  0
 16 54  1  0
 16 55  1  0
 17 56  1  0
 17 57  1  0
 18 58  1  0
 18 59  1  0
 19 60  1  0
 19 61  1  0
 21 62  1  0
 36 63  1  0
 36 64  1  0
 36 65  1  0
M  END
$$$$
