PDB_DB00523_98
     RDKit          3D

 50 50  0  0  0  0  0  0  0  0999 V2000
   21.8290   10.8740   18.2900 C   0  0  0  0  0  0  0  0  0  0  0  0
   23.4010   10.8260   18.6980 C   0  0  0  0  0  0  0  0  0  0  0  0
   24.4050   11.6750   17.8000 C   0  0  0  0  0  0  0  0  0  0  0  0
   24.1260   11.4620   16.3160 C   0  0  0  0  0  0  0  0  0  0  0  0
   22.6780   11.8940   15.9000 C   0  0  0  0  0  0  0  0  0  0  0  0
   21.5330   11.6320   16.8140 C   0  0  0  0  0  0  0  0  0  0  0  0
   20.1320   11.9900   16.5760 C   0  0  0  0  0  0  0  0  0  0  0  0
   19.4640   12.7860   15.6730 C   0  0  0  0  0  0  0  0  0  0  0  0
   18.0950   12.8960   15.2770 C   0  0  0  0  0  0  0  0  0  0  0  0
   17.6880   14.0210   14.5250 C   0  0  0  0  0  0  0  0  0  0  0  0
   18.5160   15.0980   14.2160 C   0  0  0  0  0  0  0  0  0  0  0  0
   18.0440   16.2170   13.5430 C   0  0  0  0  0  0  0  0  0  0  0  0
   18.7740   17.4110   13.2820 C   0  0  0  0  0  0  0  0  0  0  0  0
   18.0840   18.3980   12.5920 C   0  0  0  0  0  0  0  0  0  0  0  0
   18.5310   19.8040   12.1720 C   0  0  0  0  0  0  0  0  0  0  0  0
   21.3070   11.9510   19.3770 C   0  0  0  0  0  0  0  0  0  0  0  0
   21.1380    9.5810   18.6440 C   0  0  0  0  0  0  0  0  0  0  0  0
   22.6100   12.5500   14.5170 C   0  0  0  0  0  0  0  0  0  0  0  0
   17.0190   11.8800   15.6370 C   0  0  0  0  0  0  0  0  0  0  0  0
   20.2640   17.6320   13.7710 C   0  0  0  0  0  0  0  0  0  0  0  0
   18.1000   20.2710   11.1120 O   0  0  0  0  0  0  0  0  0  0  0  0
   19.3250   20.4510   12.9030 O   0  0  0  0  0  0  0  0  0  0  0  0
   23.4875   11.1935   19.7312 H   0  0  0  0  0  0  0  0  0  0  0  0
   23.7028    9.7782   18.5529 H   0  0  0  0  0  0  0  0  0  0  0  0
   24.2862   12.7422   18.0386 H   0  0  0  0  0  0  0  0  0  0  0  0
   25.4318   11.3437   18.0142 H   0  0  0  0  0  0  0  0  0  0  0  0
   24.8492   12.0526   15.7345 H   0  0  0  0  0  0  0  0  0  0  0  0
   24.2204   10.3849   16.1134 H   0  0  0  0  0  0  0  0  0  0  0  0
   19.4501   11.5063   17.2909 H   0  0  0  0  0  0  0  0  0  0  0  0
   20.1252   13.4873   15.1429 H   0  0  0  0  0  0  0  0  0  0  0  0
   16.6506   14.0482   14.1601 H   0  0  0  0  0  0  0  0  0  0  0  0
   19.5743   15.0608   14.5138 H   0  0  0  0  0  0  0  0  0  0  0  0
   17.0075   16.1771   13.1767 H   0  0  0  0  0  0  0  0  0  0  0  0
   17.0574   18.1305   12.3012 H   0  0  0  0  0  0  0  0  0  0  0  0
   21.4927   11.5678   20.3912 H   0  0  0  0  0  0  0  0  0  0  0  0
   21.8448   12.9007   19.2397 H   0  0  0  0  0  0  0  0  0  0  0  0
   20.2283   12.1172   19.2397 H   0  0  0  0  0  0  0  0  0  0  0  0
   21.0847    9.4813   19.7382 H   0  0  0  0  0  0  0  0  0  0  0  0
   20.1205    9.5826   18.2260 H   0  0  0  0  0  0  0  0  0  0  0  0
   21.7048    8.7360   18.2260 H   0  0  0  0  0  0  0  0  0  0  0  0
   22.4972   13.6381   14.6324 H   0  0  0  0  0  0  0  0  0  0  0  0
   23.5353   12.3340   13.9628 H   0  0  0  0  0  0  0  0  0  0  0  0
   21.7486   12.1488   13.9628 H   0  0  0  0  0  0  0  0  0  0  0  0
   16.9382   11.8037   16.7314 H   0  0  0  0  0  0  0  0  0  0  0  0
   16.0542   12.2043   15.2198 H   0  0  0  0  0  0  0  0  0  0  0  0
   17.2875   10.8982   15.2198 H   0  0  0  0  0  0  0  0  0  0  0  0
   20.2922   17.6362   14.8706 H   0  0  0  0  0  0  0  0  0  0  0  0
   20.8991   16.8182   13.3910 H   0  0  0  0  0  0  0  0  0  0  0  0
   20.6356   18.5951   13.3910 H   0  0  0  0  0  0  0  0  0  0  0  0
   18.3755   21.1765   10.8218 H   0  0  0  0  0  0  0  0  0  0  0  0
  1  2  1  0
  2  3  1  0
  3  4  1  0
  4  5  1  0
  1  6  1  0
  5  6  2  0
  6  7  1  0
  7  8  2  0
  8  9  1  0
  9 10  2  0
 10 11  1  0
 11 12  2  0
 12 13  1  0
 13 14  2  0
 14 15  1  0
  1 16  1  0
  1 17  1  0
  5 18  1  0
  9 19  1  0
 13 20  1  0
 15 21  1  0
 15 22  2  0
  2 23  1  0
  2 24  1  0
  3 25  1  0
  3 26  1  0
  4 27  1  0
  4 28  1  0
  7 29  1  0
  8 30  1  0
 10 31  1  0
 11 32  1  0
 12 33  1  0
 14 34  1  0
 16 35  1  0
 16 36  1  0
 16 37  1  0
 17 38  1  0
 17 39  1  0
 17 40  1  0
 18 41  1  0
 18 42  1  0
 18 43  1  0
 19 44  1  0
 19 45  1  0
 19 46  1  0
 20 47  1  0
 20 48  1  0
 20 49  1  0
 21 50  1  0
M  END
$$$$
