PDB_DB08910_98
     RDKit          3D

 31 33  0  0  0  0  0  0  0  0999 V2000
  -71.1260  -50.6950  -40.7190 C   0  0  0  0  0  0  0  0  0  0  0  0
  -70.6790  -49.4100  -41.0220 C   0  0  0  0  0  0  0  0  0  0  0  0
  -70.1050  -48.6120  -40.0340 C   0  0  0  0  0  0  0  0  0  0  0  0
  -69.9790  -49.1110  -38.7440 C   0  0  0  0  0  0  0  0  0  0  0  0
  -70.4220  -50.3950  -38.4390 C   0  0  0  0  0  0  0  0  0  0  0  0
  -70.9990  -51.1910  -39.4230 C   0  0  0  0  0  0  0  0  0  0  0  0
  -69.4630  -48.5860  -37.5610 C   0  0  0  0  0  0  0  0  0  0  0  0
  -69.5770  -49.4910  -36.5890 N   0  0  0  0  0  0  0  0  0  0  0  0
  -70.1520  -50.5850  -37.0850 C   0  0  0  0  0  0  0  0  0  0  0  0
  -71.4220  -52.4170  -39.1290 N   0  0  0  0  0  0  0  0  0  0  0  0
  -70.4130  -51.6010  -36.4400 O   0  0  0  0  0  0  0  0  0  0  0  0
  -69.1860  -49.3330  -35.1810 C   0  0  1  0  0  0  0  0  0  0  0  0
  -68.9820  -47.4620  -37.4450 O   0  0  0  0  0  0  0  0  0  0  0  0
  -67.6770  -49.2350  -34.9780 C   0  0  0  0  0  0  0  0  0  0  0  0
  -69.8970  -48.1190  -34.5680 C   0  0  0  0  0  0  0  0  0  0  0  0
  -69.3650  -47.4800  -33.4510 N   0  0  0  0  0  0  0  0  0  0  0  0
  -68.1710  -47.9250  -32.8650 C   0  0  0  0  0  0  0  0  0  0  0  0
  -67.3890  -49.1160  -33.4740 C   0  0  0  0  0  0  0  0  0  0  0  0
  -70.9540  -47.7060  -35.0470 O   0  0  0  0  0  0  0  0  0  0  0  0
  -67.7450  -47.3320  -31.8790 O   0  0  0  0  0  0  0  0  0  0  0  0
  -71.5795  -51.3182  -41.5038 H   0  0  0  0  0  0  0  0  0  0  0  0
  -70.7799  -49.0235  -42.0469 H   0  0  0  0  0  0  0  0  0  0  0  0
  -69.7552  -47.5970  -40.2735 H   0  0  0  0  0  0  0  0  0  0  0  0
  -71.3257  -52.7787  -38.1694 H   0  0  0  0  0  0  0  0  0  0  0  0
  -71.8459  -53.0049  -39.8609 H   0  0  0  0  0  0  0  0  0  0  0  0
  -69.5039  -50.2483  -34.6602 H   0  0  0  0  0  0  0  0  0  0  0  0
  -67.1904  -50.1369  -35.3778 H   0  0  0  0  0  0  0  0  0  0  0  0
  -67.2844  -48.3533  -35.5056 H   0  0  0  0  0  0  0  0  0  0  0  0
  -69.8557  -46.6684  -33.0491 H   0  0  0  0  0  0  0  0  0  0  0  0
  -67.6959  -50.0454  -32.9719 H   0  0  0  0  0  0  0  0  0  0  0  0
  -66.3119  -48.9455  -33.3301 H   0  0  0  0  0  0  0  0  0  0  0  0
  1  2  2  0
  2  3  1  0
  3  4  2  0
  4  5  1  0
  1  6  1  0
  5  6  2  0
  4  7  1  0
  7  8  1  0
  5  9  1  0
  8  9  1  0
  6 10  1  0
  9 11  2  0
  8 12  1  0
  7 13  2  0
 12 14  1  0
 12 15  1  0
 15 16  1  0
 16 17  1  0
 14 18  1  0
 17 18  1  0
 15 19  2  0
 17 20  2  0
  1 21  1  0
  2 22  1  0
  3 23  1  0
 10 24  1  0
 10 25  1  0
 12 26  1  1
 14 27  1  0
 14 28  1  0
 16 29  1  0
 18 30  1  0
 18 31  1  0
M  END
$$$$
