PDB_DB00877_94
     RDKit          3D

144147  0  0  0  0  0  0  0  0999 V2000
   -8.4830   19.4800   -3.5420 C   0  0  0  0  0  0  0  0  0  0  0  0
   -7.2470   19.0030   -2.9400 O   0  0  0  0  0  0  0  0  0  0  0  0
   -8.4630   20.4750   -4.2500 O   0  0  0  0  0  0  0  0  0  0  0  0
   -9.7510   18.7060   -3.2840 C   0  0  2  0  0  0  0  0  0  0  0  0
  -10.8930   19.6030   -2.7920 C   0  0  0  0  0  0  0  0  0  0  0  0
  -10.6630   20.1210   -1.3640 C   0  0  0  0  0  0  0  0  0  0  0  0
  -10.3890   18.9720   -0.3860 C   0  0  0  0  0  0  0  0  0  0  0  0
   -9.2250   18.1170   -0.9080 C   0  0  0  0  0  0  0  0  0  0  0  0
   -9.5220   17.6300   -2.2860 N   0  0  0  0  0  0  0  0  0  0  0  0
   -9.5690   16.3520   -2.7000 C   0  0  0  0  0  0  0  0  0  0  0  0
   -9.7460   16.0280   -3.8540 O   0  0  0  0  0  0  0  0  0  0  0  0
   -9.4190   15.2560   -1.7460 C   0  0  0  0  0  0  0  0  0  0  0  0
  -10.4370   14.7630   -1.3140 O   0  0  0  0  0  0  0  0  0  0  0  0
   -8.0610   14.7130   -1.3170 C   0  0  1  0  0  0  0  0  0  0  0  0
   -7.5650   15.6430   -0.3440 O   0  0  0  0  0  0  0  0  0  0  0  0
   -8.2440   13.4050   -0.7640 O   0  0  0  0  0  0  0  0  0  0  0  0
   -7.0490   14.5840   -2.4690 C   0  0  1  0  0  0  0  0  0  0  0  0
   -5.6640   14.2450   -1.9000 C   0  0  0  0  0  0  0  0  0  0  0  0
   -5.2250   15.2440   -0.8250 C   0  0  0  0  0  0  0  0  0  0  0  0
   -6.2890   15.4050    0.2610 C   0  0  1  0  0  0  0  0  0  0  0  0
   -6.0720   16.6430    1.1220 C   0  0  0  0  0  0  0  0  0  0  0  0
   -4.8830   16.4950    2.0630 C   0  0  2  0  0  0  0  0  0  0  0  0
   -5.2160   15.6030    3.1330 O   0  0  0  0  0  0  0  0  0  0  0  0
   -4.5060   17.8880    2.5110 C   0  0  0  0  0  0  0  0  0  0  0  0
   -3.3540   18.4190    2.0000 C   0  0  0  0  0  0  0  0  0  0  0  0
   -2.8420   19.7610    2.2990 C   0  0  0  0  0  0  0  0  0  0  0  0
   -1.6690   20.1810    1.8060 C   0  0  0  0  0  0  0  0  0  0  0  0
   -1.2100   21.5390    2.1160 C   0  0  0  0  0  0  0  0  0  0  0  0
   -0.1600   22.0930    1.4990 C   0  0  0  0  0  0  0  0  0  0  0  0
    0.3010   23.5050    1.8020 C   0  0  2  0  0  0  0  0  0  0  0  0
    0.1750   24.4460    0.5860 C   0  0  0  0  0  0  0  0  0  0  0  0
   -1.2560   24.6020    0.0460 C   0  0  2  0  0  0  0  0  0  0  0  0
   -1.1600   25.0640   -1.3980 C   0  0  0  0  0  0  0  0  0  0  0  0
   -1.1440   26.2580   -1.6390 O   0  0  0  0  0  0  0  0  0  0  0  0
   -1.0050   24.0650   -2.5320 C   0  0  2  0  0  0  0  0  0  0  0  0
   -0.4390   24.6500   -3.7040 O   0  0  0  0  0  0  0  0  0  0  0  0
   -2.3040   23.4310   -2.9920 C   0  0  2  0  0  0  0  0  0  0  0  0
   -3.2610   24.4760   -3.2190 O   0  0  0  0  0  0  0  0  0  0  0  0
   -2.7670   22.3780   -2.0130 C   0  0  0  0  0  0  0  0  0  0  0  0
   -3.9430   22.5530   -1.3630 C   0  0  0  0  0  0  0  0  0  0  0  0
   -4.5060   21.5640   -0.3540 C   0  0  2  0  0  0  0  0  0  0  0  0
   -5.6050   20.7980   -1.0610 C   0  0  0  0  0  0  0  0  0  0  0  0
   -6.7760   21.0950   -0.9360 O   0  0  0  0  0  0  0  0  0  0  0  0
   -5.2240   19.6750   -1.9910 C   0  0  0  0  0  0  0  0  0  0  0  0
   -6.0680   19.7080   -3.2740 C   0  0  1  0  0  0  0  0  0  0  0  0
   -5.4190   19.0020   -4.4750 C   0  0  1  0  0  0  0  0  0  0  0  0
   -4.2410   19.7740   -5.0490 C   0  0  0  0  0  0  0  0  0  0  0  0
   -4.5620   21.1590   -5.6270 C   0  0  1  0  0  0  0  0  0  0  0  0
   -3.2760   21.6720   -6.3080 C   0  0  0  0  0  0  0  0  0  0  0  0
   -3.4840   23.0710   -6.9000 C   0  0  1  0  0  0  0  0  0  0  0  0
   -2.2970   23.5090   -7.5620 O   0  0  0  0  0  0  0  0  0  0  0  0
   -4.5950   22.9950   -7.9470 C   0  0  2  0  0  0  0  0  0  0  0  0
   -4.8120   24.2860   -8.5170 O   0  0  0  0  0  0  0  0  0  0  0  0
   -5.9160   22.4390   -7.3910 C   0  0  0  0  0  0  0  0  0  0  0  0
   -5.7360   21.1360   -6.6160 C   0  0  0  0  0  0  0  0  0  0  0  0
   -7.5120   13.5340   -3.4920 C   0  0  0  0  0  0  0  0  0  0  0  0
   -5.4530   18.6350    3.4550 C   0  0  0  0  0  0  0  0  0  0  0  0
    1.7740   23.4680    2.2000 C   0  0  0  0  0  0  0  0  0  0  0  0
   -2.0890   25.5630    0.9020 C   0  0  0  0  0  0  0  0  0  0  0  0
   -1.8850   21.1740   -1.7520 C   0  0  0  0  0  0  0  0  0  0  0  0
   -4.9810   22.2990    0.8980 C   0  0  0  0  0  0  0  0  0  0  0  0
   -4.9830   17.5760   -4.1260 C   0  0  0  0  0  0  0  0  0  0  0  0
   -4.0410   15.1670    3.8120 C   0  0  0  0  0  0  0  0  0  0  0  0
    0.9600   24.9430   -3.6410 C   0  0  0  0  0  0  0  0  0  0  0  0
   -1.3550   24.2120   -6.7590 C   0  0  0  0  0  0  0  0  0  0  0  0
  -10.0449   18.2669   -4.2488 H   0  0  0  0  0  0  0  0  0  0  0  0
  -10.9811   20.4650   -3.4697 H   0  0  0  0  0  0  0  0  0  0  0  0
  -11.8120   18.9985   -2.7835 H   0  0  0  0  0  0  0  0  0  0  0  0
   -9.7994   20.8023   -1.3658 H   0  0  0  0  0  0  0  0  0  0  0  0
  -11.5737   20.6435   -1.0358 H   0  0  0  0  0  0  0  0  0  0  0  0
  -10.1268   19.3847    0.5993 H   0  0  0  0  0  0  0  0  0  0  0  0
  -11.2895   18.3467   -0.2958 H   0  0  0  0  0  0  0  0  0  0  0  0
   -8.3079   18.7242   -0.9269 H   0  0  0  0  0  0  0  0  0  0  0  0
   -9.0885   17.2516   -0.2428 H   0  0  0  0  0  0  0  0  0  0  0  0
   -8.2362   13.4606    0.2244 H   0  0  0  0  0  0  0  0  0  0  0  0
   -6.9826   15.5447   -3.0007 H   0  0  0  0  0  0  0  0  0  0  0  0
   -5.6987   13.2388   -1.4568 H   0  0  0  0  0  0  0  0  0  0  0  0
   -4.9373   14.2918   -2.7244 H   0  0  0  0  0  0  0  0  0  0  0  0
   -4.2940   14.8845   -0.3623 H   0  0  0  0  0  0  0  0  0  0  0  0
   -5.0726   16.2218   -1.3053 H   0  0  0  0  0  0  0  0  0  0  0  0
   -6.2335   14.4838    0.8596 H   0  0  0  0  0  0  0  0  0  0  0  0
   -5.8953   17.5054    0.4625 H   0  0  0  0  0  0  0  0  0  0  0  0
   -6.9719   16.7847    1.7385 H   0  0  0  0  0  0  0  0  0  0  0  0
   -4.0081   16.0409    1.5749 H   0  0  0  0  0  0  0  0  0  0  0  0
   -2.7667   17.7924    1.3126 H   0  0  0  0  0  0  0  0  0  0  0  0
   -3.4313   20.4341    2.9390 H   0  0  0  0  0  0  0  0  0  0  0  0
   -1.0585   19.5162    1.1772 H   0  0  0  0  0  0  0  0  0  0  0  0
   -1.7462   22.1207    2.8803 H   0  0  0  0  0  0  0  0  0  0  0  0
    0.3866   21.5047    0.7473 H   0  0  0  0  0  0  0  0  0  0  0  0
   -0.3414   23.8883    2.6085 H   0  0  0  0  0  0  0  0  0  0  0  0
    0.5409   25.4403    0.8817 H   0  0  0  0  0  0  0  0  0  0  0  0
    0.7669   23.9928   -0.2229 H   0  0  0  0  0  0  0  0  0  0  0  0
   -1.7806   23.6363    0.0936 H   0  0  0  0  0  0  0  0  0  0  0  0
   -0.3465   23.3035   -2.0887 H   0  0  0  0  0  0  0  0  0  0  0  0
   -2.1639   22.8935   -3.9415 H   0  0  0  0  0  0  0  0  0  0  0  0
   -3.5808   24.8252   -2.3496 H   0  0  0  0  0  0  0  0  0  0  0  0
   -4.5237   23.4623   -1.5773 H   0  0  0  0  0  0  0  0  0  0  0  0
   -3.7468   20.8510   -0.0002 H   0  0  0  0  0  0  0  0  0  0  0  0
   -4.1614   19.7743   -2.2575 H   0  0  0  0  0  0  0  0  0  0  0  0
   -5.4066   18.7195   -1.4776 H   0  0  0  0  0  0  0  0  0  0  0  0
   -6.2150   20.7533   -3.5835 H   0  0  0  0  0  0  0  0  0  0  0  0
   -6.1993   18.9581   -5.2491 H   0  0  0  0  0  0  0  0  0  0  0  0
   -3.5023   19.9078   -4.2450 H   0  0  0  0  0  0  0  0  0  0  0  0
   -3.8790   19.1750   -5.8976 H   0  0  0  0  0  0  0  0  0  0  0  0
   -4.8804   21.8291   -4.8148 H   0  0  0  0  0  0  0  0  0  0  0  0
   -2.4675   21.7138   -5.5633 H   0  0  0  0  0  0  0  0  0  0  0  0
   -3.0149   20.9828   -7.1246 H   0  0  0  0  0  0  0  0  0  0  0  0
   -3.7395   23.7684   -6.0886 H   0  0  0  0  0  0  0  0  0  0  0  0
   -4.2558   22.2887   -8.7191 H   0  0  0  0  0  0  0  0  0  0  0  0
   -4.9239   24.9518   -7.7930 H   0  0  0  0  0  0  0  0  0  0  0  0
   -6.3563   23.1893   -6.7177 H   0  0  0  0  0  0  0  0  0  0  0  0
   -6.5693   22.2236   -8.2493 H   0  0  0  0  0  0  0  0  0  0  0  0
   -5.5650   20.3240   -7.3381 H   0  0  0  0  0  0  0  0  0  0  0  0
   -6.6507   20.9874   -6.0233 H   0  0  0  0  0  0  0  0  0  0  0  0
   -7.9009   12.6521   -2.9619 H   0  0  0  0  0  0  0  0  0  0  0  0
   -8.3050   13.9617   -4.1231 H   0  0  0  0  0  0  0  0  0  0  0  0
   -6.6614   13.2369   -4.1231 H   0  0  0  0  0  0  0  0  0  0  0  0
   -5.1779   18.4180    4.4977 H   0  0  0  0  0  0  0  0  0  0  0  0
   -5.3744   19.7169    3.2726 H   0  0  0  0  0  0  0  0  0  0  0  0
   -6.4869   18.3066    3.2726 H   0  0  0  0  0  0  0  0  0  0  0  0
    1.8575   23.4659    3.2968 H   0  0  0  0  0  0  0  0  0  0  0  0
    2.2405   22.5579    1.7950 H   0  0  0  0  0  0  0  0  0  0  0  0
    2.2856   24.3536    1.7950 H   0  0  0  0  0  0  0  0  0  0  0  0
   -1.9089   25.3553    1.9671 H   0  0  0  0  0  0  0  0  0  0  0  0
   -1.7992   26.5999    0.6766 H   0  0  0  0  0  0  0  0  0  0  0  0
   -3.1566   25.4234    0.6766 H   0  0  0  0  0  0  0  0  0  0  0  0
   -1.7771   21.0268   -0.6673 H   0  0  0  0  0  0  0  0  0  0  0  0
   -2.3433   20.2798   -2.1996 H   0  0  0  0  0  0  0  0  0  0  0  0
   -0.8942   21.3413   -2.1996 H   0  0  0  0  0  0  0  0  0  0  0  0
   -4.6336   21.7615    1.7927 H   0  0  0  0  0  0  0  0  0  0  0  0
   -4.5714   23.3199    0.9015 H   0  0  0  0  0  0  0  0  0  0  0  0
   -6.0800   22.3449    0.9015 H   0  0  0  0  0  0  0  0  0  0  0  0
   -4.9477   17.4606   -3.0326 H   0  0  0  0  0  0  0  0  0  0  0  0
   -5.7030   16.8590   -4.5473 H   0  0  0  0  0  0  0  0  0  0  0  0
   -3.9852   17.3842   -4.5473 H   0  0  0  0  0  0  0  0  0  0  0  0
   -4.2019   15.2267    4.8985 H   0  0  0  0  0  0  0  0  0  0  0  0
   -3.8196   14.1269    3.5307 H   0  0  0  0  0  0  0  0  0  0  0  0
   -3.1947   15.8110    3.5307 H   0  0  0  0  0  0  0  0  0  0  0  0
    1.2738   25.0087   -2.5888 H   0  0  0  0  0  0  0  0  0  0  0  0
    1.5250   24.1437   -4.1429 H   0  0  0  0  0  0  0  0  0  0  0  0
    1.1568   25.9018   -4.1429 H   0  0  0  0  0  0  0  0  0  0  0  0
   -1.5812   24.0432   -5.6958 H   0  0  0  0  0  0  0  0  0  0  0  0
   -0.3408   23.8482   -6.9803 H   0  0  0  0  0  0  0  0  0  0  0  0
   -1.4151   25.2878   -6.9803 H   0  0  0  0  0  0  0  0  0  0  0  0
  1  2  1  0
  1  3  2  0
  1  4  1  0
  4  5  1  0
  5  6  1  0
  6  7  1  0
  7  8  1  0
  4  9  1  0
  8  9  1  0
  9 10  1  0
 10 11  2  0
 10 12  1  0
 12 13  2  0
 12 14  1  0
 14 15  1  0
 14 16  1  1
 14 17  1  0
 17 18  1  0
 18 19  1  0
 15 20  1  0
 19 20  1  0
 20 21  1  0
 21 22  1  0
 22 23  1  0
 22 24  1  0
 24 25  2  0
 25 26  1  0
 26 27  2  0
 27 28  1  0
 28 29  2  0
 29 30  1  0
 30 31  1  0
 31 32  1  0
 32 33  1  0
 33 34  2  0
 33 35  1  0
 35 36  1  0
 35 37  1  0
 37 38  1  0
 37 39  1  0
 39 40  2  0
 40 41  1  0
 41 42  1  0
 42 43  2  0
 42 44  1  0
  2 45  1  0
 44 45  1  0
 45 46  1  0
 46 47  1  0
 47 48  1  0
 48 49  1  0
 49 50  1  0
 50 51  1  0
 50 52  1  0
 52 53  1  0
 52 54  1  0
 48 55  1  0
 54 55  1  0
 17 56  1  0
 24 57  1  0
 30 58  1  0
 32 59  1  0
 39 60  1  0
 41 61  1  0
 46 62  1  0
 23 63  1  0
 36 64  1  0
 51 65  1  0
  4 66  1  6
  5 67  1  0
  5 68  1  0
  6 69  1  0
  6 70  1  0
  7 71  1  0
  7 72  1  0
  8 73  1  0
  8 74  1  0
 16 75  1  0
 17 76  1  6
 18 77  1  0
 18 78  1  0
 19 79  1  0
 19 80  1  0
 20 81  1  1
 21 82  1  0
 21 83  1  0
 22 84  1  6
 25 85  1  0
 26 86  1  0
 27 87  1  0
 28 88  1  0
 29 89  1  0
 30 90  1  1
 31 91  1  0
 31 92  1  0
 32 93  1  6
 35 94  1  1
 37 95  1  6
 38 96  1  0
 40 97  1  0
 41 98  1  1
 44 99  1  0
 44100  1  0
 45101  1  6
 46102  1  6
 47103  1  0
 47104  1  0
 48105  1  1
 49106  1  0
 49107  1  0
 50108  1  1
 52109  1  6
 53110  1  0
 54111  1  0
 54112  1  0
 55113  1  0
 55114  1  0
 56115  1  0
 56116  1  0
 56117  1  0
 57118  1  0
 57119  1  0
 57120  1  0
 58121  1  0
 58122  1  0
 58123  1  0
 59124  1  0
 59125  1  0
 59126  1  0
 60127  1  0
 60128  1  0
 60129  1  0
 61130  1  0
 61131  1  0
 61132  1  0
 62133  1  0
 62134  1  0
 62135  1  0
 63136  1  0
 63137  1  0
 63138  1  0
 64139  1  0
 64140  1  0
 64141  1  0
 65142  1  0
 65143  1  0
 65144  1  0
M  END
$$$$
