PDB_DB01336_96
     RDKit          3D

 96102  0  0  0  0  0  0  0  0999 V2000
  -38.3310   -1.9390    9.9110 N   0  0  0  0  0  0  0  0  0  0  0  0
  -38.5080   -3.1610   10.7330 C   0  0  0  0  0  0  0  0  0  0  0  0
  -39.0800   -4.4760   10.1990 C   0  0  0  0  0  0  0  0  0  0  0  0
  -40.1100   -4.1920    9.1420 C   0  0  0  0  0  0  0  0  0  0  0  0
  -40.1120   -2.9770    8.4540 C   0  0  0  0  0  0  0  0  0  0  0  0
  -39.1160   -1.8570    8.6740 C   0  0  2  0  0  0  0  0  0  0  0  0
  -41.0760   -5.1710    8.8490 C   0  0  0  0  0  0  0  0  0  0  0  0
  -42.0590   -4.9790    7.8630 C   0  0  0  0  0  0  0  0  0  0  0  0
  -42.0750   -3.7730    7.1560 C   0  0  0  0  0  0  0  0  0  0  0  0
  -41.0990   -2.7990    7.4710 C   0  0  0  0  0  0  0  0  0  0  0  0
  -43.0150   -3.4820    6.1650 O   0  0  0  0  0  0  0  0  0  0  0  0
  -43.5060   -2.1800    6.1400 C   0  0  0  0  0  0  0  0  0  0  0  0
  -44.5070   -1.7560    7.0630 C   0  0  0  0  0  0  0  0  0  0  0  0
  -44.9230   -0.4250    6.9990 C   0  0  0  0  0  0  0  0  0  0  0  0
  -44.3450    0.4470    6.0650 C   0  0  0  0  0  0  0  0  0  0  0  0
  -43.3420    0.0480    5.1800 C   0  0  0  0  0  0  0  0  0  0  0  0
  -42.9200   -1.2820    5.2250 C   0  0  0  0  0  0  0  0  0  0  0  0
  -42.7730    1.0910    4.2310 C   0  0  0  0  0  0  0  0  0  0  0  0
  -42.8450    0.7620    2.7260 C   0  0  1  0  0  0  0  0  0  0  0  0
  -44.0700    1.3060    2.0360 N   0  0  0  0  0  0  0  0  0  0  0  0
  -44.0830    2.7940    2.1090 C   0  0  0  0  0  0  0  0  0  0  0  0
  -42.8470    3.4730    1.4680 C   0  0  0  0  0  0  0  0  0  0  0  0
  -41.6270    2.5520    1.4130 C   0  0  0  0  0  0  0  0  0  0  0  0
  -41.6010    1.2660    2.0140 C   0  0  0  0  0  0  0  0  0  0  0  0
  -40.4950    3.0230    0.7340 C   0  0  0  0  0  0  0  0  0  0  0  0
  -39.3290    2.2350    0.6380 C   0  0  0  0  0  0  0  0  0  0  0  0
  -39.2670    0.9550    1.2150 C   0  0  0  0  0  0  0  0  0  0  0  0
  -40.4180    0.4650    1.8890 C   0  0  0  0  0  0  0  0  0  0  0  0
  -40.3910   -0.7930    2.4520 O   0  0  0  0  0  0  0  0  0  0  0  0
  -39.8490   -0.9670    3.7130 C   0  0  0  0  0  0  0  0  0  0  0  0
  -39.3600   -2.2400    4.0170 C   0  0  0  0  0  0  0  0  0  0  0  0
  -38.7910   -2.4650    5.2640 C   0  0  0  0  0  0  0  0  0  0  0  0
  -38.6930   -1.4460    6.2050 C   0  0  0  0  0  0  0  0  0  0  0  0
  -39.1780   -0.1560    5.9220 C   0  0  0  0  0  0  0  0  0  0  0  0
  -39.7650    0.0850    4.6670 C   0  0  0  0  0  0  0  0  0  0  0  0
  -38.0880   -1.8190    7.5360 C   0  0  0  0  0  0  0  0  0  0  0  0
  -43.0080   -5.9530    7.6050 O   0  0  0  0  0  0  0  0  0  0  0  0
  -43.6930   -6.6860    8.6500 C   0  0  0  0  0  0  0  0  0  0  0  0
  -45.1190   -2.6280    7.9710 O   0  0  0  0  0  0  0  0  0  0  0  0
  -38.2480    2.7360   -0.0510 O   0  0  0  0  0  0  0  0  0  0  0  0
  -38.1880    2.5270   -1.4640 C   0  0  0  0  0  0  0  0  0  0  0  0
  -38.0640    0.2780    1.0170 O   0  0  0  0  0  0  0  0  0  0  0  0
  -38.6050   -0.7180   10.6940 C   0  0  0  0  0  0  0  0  0  0  0  0
  -44.1050    0.9040    0.6140 C   0  0  0  0  0  0  0  0  0  0  0  0
  -45.3240    0.7880    2.6230 C   0  0  0  0  0  0  0  0  0  0  0  0
  -37.3800   -0.7010    1.7900 C   0  0  0  0  0  0  0  0  0  0  0  0
  -36.9160   -1.8210    9.6260 C   0  0  0  0  0  0  0  0  0  0  0  0
  -45.6480   -2.3410    9.2770 C   0  0  0  0  0  0  0  0  0  0  0  0
  -37.5085   -3.4065   11.1213 H   0  0  0  0  0  0  0  0  0  0  0  0
  -39.3138   -2.8423   11.4106 H   0  0  0  0  0  0  0  0  0  0  0  0
  -38.2679   -5.0778    9.7650 H   0  0  0  0  0  0  0  0  0  0  0  0
  -39.5508   -5.0290   11.0252 H   0  0  0  0  0  0  0  0  0  0  0  0
  -39.7526   -0.9614    8.7252 H   0  0  0  0  0  0  0  0  0  0  0  0
  -41.0618   -6.1174    9.4095 H   0  0  0  0  0  0  0  0  0  0  0  0
  -41.1139   -1.8498    6.9154 H   0  0  0  0  0  0  0  0  0  0  0  0
  -45.7046   -0.0599    7.6815 H   0  0  0  0  0  0  0  0  0  0  0  0
  -44.6967    1.4886    6.0283 H   0  0  0  0  0  0  0  0  0  0  0  0
  -42.1285   -1.6299    4.5450 H   0  0  0  0  0  0  0  0  0  0  0  0
  -43.3242    2.0287    4.3951 H   0  0  0  0  0  0  0  0  0  0  0  0
  -41.6999    1.1455    4.4667 H   0  0  0  0  0  0  0  0  0  0  0  0
  -42.9090   -0.3345    2.6660 H   0  0  0  0  0  0  0  0  0  0  0  0
  -44.9830    3.1568    1.5910 H   0  0  0  0  0  0  0  0  0  0  0  0
  -44.0697    3.0578    3.1768 H   0  0  0  0  0  0  0  0  0  0  0  0
  -43.1049    3.7764    0.4426 H   0  0  0  0  0  0  0  0  0  0  0  0
  -42.5816    4.3373    2.0946 H   0  0  0  0  0  0  0  0  0  0  0  0
  -40.5161    4.0201    0.2699 H   0  0  0  0  0  0  0  0  0  0  0  0
  -39.4247   -3.0530    3.2789 H   0  0  0  0  0  0  0  0  0  0  0  0
  -38.4111   -3.4672    5.5115 H   0  0  0  0  0  0  0  0  0  0  0  0
  -39.0996    0.6486    6.6680 H   0  0  0  0  0  0  0  0  0  0  0  0
  -40.1578    1.0833    4.4239 H   0  0  0  0  0  0  0  0  0  0  0  0
  -37.3135   -1.0797    7.7882 H   0  0  0  0  0  0  0  0  0  0  0  0
  -37.6722   -2.8324    7.4352 H   0  0  0  0  0  0  0  0  0  0  0  0
  -43.3556   -6.3249    9.6327 H   0  0  0  0  0  0  0  0  0  0  0  0
  -44.7780   -6.5316    8.5554 H   0  0  0  0  0  0  0  0  0  0  0  0
  -43.4656   -7.7581    8.5554 H   0  0  0  0  0  0  0  0  0  0  0  0
  -37.8898    1.4882   -1.6687 H   0  0  0  0  0  0  0  0  0  0  0  0
  -39.1773    2.7182   -1.9053 H   0  0  0  0  0  0  0  0  0  0  0  0
  -37.4508    3.2138   -1.9053 H   0  0  0  0  0  0  0  0  0  0  0  0
  -38.5526   -0.9515   11.7677 H   0  0  0  0  0  0  0  0  0  0  0  0
  -37.8569    0.0503   10.4489 H   0  0  0  0  0  0  0  0  0  0  0  0
  -39.6096   -0.3430   10.4489 H   0  0  0  0  0  0  0  0  0  0  0  0
  -44.2002   -0.1897    0.5444 H   0  0  0  0  0  0  0  0  0  0  0  0
  -44.9652    1.3792    0.1197 H   0  0  0  0  0  0  0  0  0  0  0  0
  -43.1757    1.2233    0.1197 H   0  0  0  0  0  0  0  0  0  0  0  0
  -45.2544    0.8167    3.7204 H   0  0  0  0  0  0  0  0  0  0  0  0
  -46.1682    1.4110    2.2927 H   0  0  0  0  0  0  0  0  0  0  0  0
  -45.4824   -0.2492    2.2927 H   0  0  0  0  0  0  0  0  0  0  0  0
  -37.5265   -0.4914    2.8599 H   0  0  0  0  0  0  0  0  0  0  0  0
  -37.7786   -1.6987    1.5539 H   0  0  0  0  0  0  0  0  0  0  0  0
  -36.3061   -0.6699    1.5539 H   0  0  0  0  0  0  0  0  0  0  0  0
  -36.3544   -1.7742   10.5707 H   0  0  0  0  0  0  0  0  0  0  0  0
  -36.5848   -2.6946    9.0454 H   0  0  0  0  0  0  0  0  0  0  0  0
  -36.7341   -0.9046    9.0454 H   0  0  0  0  0  0  0  0  0  0  0  0
  -44.9550   -2.7170   10.0441 H   0  0  0  0  0  0  0  0  0  0  0  0
  -45.7685   -1.2538    9.3930 H   0  0  0  0  0  0  0  0  0  0  0  0
  -46.6251   -2.8327    9.3930 H   0  0  0  0  0  0  0  0  0  0  0  0
  1  2  1  0
  2  3  1  0
  3  4  1  0
  4  5  2  0
  1  6  1  0
  5  6  1  0
  4  7  1  0
  7  8  2  0
  8  9  1  0
  5 10  1  0
  9 10  2  0
  9 11  1  0
 11 12  1  0
 12 13  2  0
 13 14  1  0
 14 15  2  0
 15 16  1  0
 12 17  1  0
 16 17  2  0
 16 18  1  0
 18 19  1  0
 19 20  1  0
 20 21  1  0
 21 22  1  0
 22 23  1  0
 19 24  1  0
 23 24  2  0
 23 25  1  0
 25 26  2  0
 26 27  1  0
 24 28  1  0
 27 28  2  0
 28 29  1  0
 29 30  1  0
 30 31  2  0
 31 32  1  0
 32 33  2  0
 33 34  1  0
 30 35  1  0
 34 35  2  0
  6 36  1  0
 33 36  1  0
  8 37  1  0
 37 38  1  0
 13 39  1  0
 26 40  1  0
 40 41  1  0
 27 42  1  0
  1 43  1  0
 20 44  1  0
 20 45  1  0
 42 46  1  0
  1 47  1  0
 39 48  1  0
  2 49  1  0
  2 50  1  0
  3 51  1  0
  3 52  1  0
  6 53  1  1
  7 54  1  0
 10 55  1  0
 14 56  1  0
 15 57  1  0
 17 58  1  0
 18 59  1  0
 18 60  1  0
 19 61  1  1
 21 62  1  0
 21 63  1  0
 22 64  1  0
 22 65  1  0
 25 66  1  0
 31 67  1  0
 32 68  1  0
 34 69  1  0
 35 70  1  0
 36 71  1  0
 36 72  1  0
 38 73  1  0
 38 74  1  0
 38 75  1  0
 41 76  1  0
 41 77  1  0
 41 78  1  0
 43 79  1  0
 43 80  1  0
 43 81  1  0
 44 82  1  0
 44 83  1  0
 44 84  1  0
 45 85  1  0
 45 86  1  0
 45 87  1  0
 46 88  1  0
 46 89  1  0
 46 90  1  0
 47 91  1  0
 47 92  1  0
 47 93  1  0
 48 94  1  0
 48 95  1  0
 48 96  1  0
M  CHG  2   1   1  20   1
M  END
$$$$
