PDB_DB01016_96
     RDKit          3D

 61 63  0  0  0  0  0  0  0  0999 V2000
  141.6030   65.9490  124.0190 O   0  0  0  0  0  0  0  0  0  0  0  0
  140.0620   65.3360  126.1130 O   0  0  0  0  0  0  0  0  0  0  0  0
  139.9030   67.5310  127.6980 O   0  0  0  0  0  0  0  0  0  0  0  0
  144.8240   63.6060  129.9690 O   0  0  0  0  0  0  0  0  0  0  0  0
  148.3090   63.4640  135.2290 Cl  0  0  0  0  0  0  0  0  0  0  0  0
  140.7700   66.7700  126.5190 S   0  0  0  0  0  0  0  0  0  0  0  0
  143.4300   62.7490  131.9270 O   0  0  0  0  0  0  0  0  0  0  0  0
  141.4450   67.8010  122.6820 N   0  0  0  0  0  0  0  0  0  0  0  0
  140.8450   67.7580  125.1370 N   0  0  0  0  0  0  0  0  0  0  0  0
  146.9980   64.2750  130.0710 N   0  0  0  0  0  0  0  0  0  0  0  0
  141.9310   67.0540  121.5220 C   0  0  0  0  0  0  0  0  0  0  0  0
  143.2360   66.3650  121.9100 C   0  0  0  0  0  0  0  0  0  0  0  0
  142.1400   68.0170  120.3600 C   0  0  0  0  0  0  0  0  0  0  0  0
  143.8800   65.6540  120.7280 C   0  0  0  0  0  0  0  0  0  0  0  0
  142.7530   67.2860  119.1740 C   0  0  0  0  0  0  0  0  0  0  0  0
  144.0680   66.6040  119.5500 C   0  0  0  0  0  0  0  0  0  0  0  0
  141.3170   67.0950  123.9410 C   0  0  0  0  0  0  0  0  0  0  0  0
  142.4770   66.5110  127.0840 C   0  0  0  0  0  0  0  0  0  0  0  0
  145.0820   66.1820  127.9610 C   0  0  0  0  0  0  0  0  0  0  0  0
  146.5180   66.0420  128.4610 C   0  0  0  0  0  0  0  0  0  0  0  0
  143.1600   65.3370  126.8090 C   0  0  0  0  0  0  0  0  0  0  0  0
  143.0990   67.5170  127.7900 C   0  0  0  0  0  0  0  0  0  0  0  0
  144.4650   65.1710  127.2490 C   0  0  0  0  0  0  0  0  0  0  0  0
  144.4000   67.3510  128.2280 C   0  0  0  0  0  0  0  0  0  0  0  0
  146.9650   64.6010  128.6620 C   0  0  0  0  0  0  0  0  0  0  0  0
  145.7810   63.7460  130.6540 C   0  0  0  0  0  0  0  0  0  0  0  0
  145.7350   63.3860  132.1340 C   0  0  0  0  0  0  0  0  0  0  0  0
  144.5760   62.9110  132.7050 C   0  0  0  0  0  0  0  0  0  0  0  0
  146.8660   63.5510  132.9030 C   0  0  0  0  0  0  0  0  0  0  0  0
  144.5470   62.5980  134.0500 C   0  0  0  0  0  0  0  0  0  0  0  0
  146.8400   63.2400  134.2450 C   0  0  0  0  0  0  0  0  0  0  0  0
  145.6800   62.7620  134.8230 C   0  0  0  0  0  0  0  0  0  0  0  0
  142.7550   63.9500  131.6780 C   0  0  0  0  0  0  0  0  0  0  0  0
  141.2011   68.7988  122.6062 H   0  0  0  0  0  0  0  0  0  0  0  0
  140.5752   68.7519  125.1504 H   0  0  0  0  0  0  0  0  0  0  0  0
  147.8488   64.4127  130.6350 H   0  0  0  0  0  0  0  0  0  0  0  0
  141.2028   66.2916  121.2081 H   0  0  0  0  0  0  0  0  0  0  0  0
  143.9364   67.1215  122.2937 H   0  0  0  0  0  0  0  0  0  0  0  0
  143.0063   65.6098  122.6761 H   0  0  0  0  0  0  0  0  0  0  0  0
  141.1705   68.4429  120.0624 H   0  0  0  0  0  0  0  0  0  0  0  0
  142.8217   68.8197  120.6777 H   0  0  0  0  0  0  0  0  0  0  0  0
  144.8617   65.2642  121.0350 H   0  0  0  0  0  0  0  0  0  0  0  0
  143.2189   64.8335  120.4122 H   0  0  0  0  0  0  0  0  0  0  0  0
  142.0440   66.5231  118.8200 H   0  0  0  0  0  0  0  0  0  0  0  0
  142.9623   68.0246  118.3862 H   0  0  0  0  0  0  0  0  0  0  0  0
  144.8055   67.3730  119.8235 H   0  0  0  0  0  0  0  0  0  0  0  0
  144.4176   66.0211  118.6851 H   0  0  0  0  0  0  0  0  0  0  0  0
  147.1877   66.5128  127.7262 H   0  0  0  0  0  0  0  0  0  0  0  0
  146.5613   66.5294  129.4462 H   0  0  0  0  0  0  0  0  0  0  0  0
  142.6662   64.5350  126.2406 H   0  0  0  0  0  0  0  0  0  0  0  0
  142.5610   68.4520  128.0053 H   0  0  0  0  0  0  0  0  0  0  0  0
  145.0065   64.2384  127.0321 H   0  0  0  0  0  0  0  0  0  0  0  0
  144.8939   68.1556  128.7925 H   0  0  0  0  0  0  0  0  0  0  0  0
  147.9709   64.4708  128.2362 H   0  0  0  0  0  0  0  0  0  0  0  0
  146.2516   63.9325  128.1578 H   0  0  0  0  0  0  0  0  0  0  0  0
  147.7910   63.9315  132.4451 H   0  0  0  0  0  0  0  0  0  0  0  0
  143.6209   62.2178  134.5059 H   0  0  0  0  0  0  0  0  0  0  0  0
  145.6586   62.5130  135.8942 H   0  0  0  0  0  0  0  0  0  0  0  0
  142.4878   64.4253  132.6333 H   0  0  0  0  0  0  0  0  0  0  0  0
  143.4064   64.6242  131.1025 H   0  0  0  0  0  0  0  0  0  0  0  0
  141.8404   63.7441  131.1025 H   0  0  0  0  0  0  0  0  0  0  0  0
  2  6  2  0
  3  6  2  0
  6  9  1  0
  8 11  1  0
 11 12  1  0
 11 13  1  0
 12 14  1  0
 13 15  1  0
 14 16  1  0
 15 16  1  0
  1 17  2  0
  8 17  1  0
  9 17  1  0
  6 18  1  0
 19 20  1  0
 18 21  2  0
 18 22  1  0
 19 23  2  0
 21 23  1  0
 19 24  1  0
 22 24  2  0
 10 25  1  0
 20 25  1  0
  4 26  2  0
 10 26  1  0
 26 27  1  0
  7 28  1  0
 27 28  2  0
 27 29  1  0
 28 30  1  0
  5 31  1  0
 29 31  2  0
 30 32  2  0
 31 32  1  0
  7 33  1  0
  8 34  1  0
  9 35  1  0
 10 36  1  0
 11 37  1  0
 12 38  1  0
 12 39  1  0
 13 40  1  0
 13 41  1  0
 14 42  1  0
 14 43  1  0
 15 44  1  0
 15 45  1  0
 16 46  1  0
 16 47  1  0
 20 48  1  0
 20 49  1  0
 21 50  1  0
 22 51  1  0
 23 52  1  0
 24 53  1  0
 25 54  1  0
 25 55  1  0
 29 56  1  0
 30 57  1  0
 32 58  1  0
 33 59  1  0
 33 60  1  0
 33 61  1  0
M  END
$$$$
