PDB_DB01095_96
     RDKit          3D

 56 58  0  0  0  0  0  0  0  0999 V2000
   52.4920   13.9940   21.8120 C   0  0  0  0  0  0  0  0  0  0  0  0
   51.8820   15.2240   21.9500 C   0  0  0  0  0  0  0  0  0  0  0  0
   52.6160   16.4090   21.6950 C   0  0  0  0  0  0  0  0  0  0  0  0
   53.9630   16.3230   21.3030 C   0  0  0  0  0  0  0  0  0  0  0  0
   54.5740   15.0640   21.1670 C   0  0  0  0  0  0  0  0  0  0  0  0
   53.8410   13.8860   21.4220 C   0  0  0  0  0  0  0  0  0  0  0  0
   51.5010   12.9090   22.1370 C   0  0  0  0  0  0  0  0  0  0  0  0
   50.4030   13.6370   22.4320 C   0  0  0  0  0  0  0  0  0  0  0  0
   50.6540   15.0770   22.3130 N   0  0  0  0  0  0  0  0  0  0  0  0
   52.8750    9.3770   22.7810 C   0  0  0  0  0  0  0  0  0  0  0  0
   52.7620   10.7820   22.8060 C   0  0  0  0  0  0  0  0  0  0  0  0
   51.6990   11.3940   22.1300 C   0  0  0  0  0  0  0  0  0  0  0  0
   50.7660   10.6070   21.4440 C   0  0  0  0  0  0  0  0  0  0  0  0
   50.8770    9.2220   21.4170 C   0  0  0  0  0  0  0  0  0  0  0  0
   51.9240    8.6030   22.0820 C   0  0  0  0  0  0  0  0  0  0  0  0
   52.0170    7.2450   22.0510 F   0  0  0  0  0  0  0  0  0  0  0  0
   46.1230    7.8950   19.4760 O   0  0  0  0  0  0  0  0  0  0  0  0
   47.6340    9.3980   18.6750 O   0  0  0  0  0  0  0  0  0  0  0  0
   46.6750    9.7320   22.2520 O   0  0  0  0  0  0  0  0  0  0  0  0
   46.5360    9.0460   19.3890 C   0  0  0  0  0  0  0  0  0  0  0  0
   45.8780   10.2360   20.0580 C   0  0  0  0  0  0  0  0  0  0  0  0
   46.6450   10.7660   21.2790 C   0  0  1  0  0  0  0  0  0  0  0  0
   45.9550   11.9830   21.9010 C   0  0  0  0  0  0  0  0  0  0  0  0
   46.7320   12.5930   23.0830 C   0  0  1  0  0  0  0  0  0  0  0  0
   47.9450   13.3620   22.6060 C   0  0  0  0  0  0  0  0  0  0  0  0
   49.2280   13.0280   22.7970 C   0  0  0  0  0  0  0  0  0  0  0  0
   49.6190   16.1680   22.5770 C   0  0  0  0  0  0  0  0  0  0  0  0
   50.0880   17.1810   23.6280 C   0  0  0  0  0  0  0  0  0  0  0  0
   49.2270   16.8890   21.2720 C   0  0  0  0  0  0  0  0  0  0  0  0
   45.8440   13.4540   23.7640 O   0  0  0  0  0  0  0  0  0  0  0  0
   52.1338   17.3917   21.8034 H   0  0  0  0  0  0  0  0  0  0  0  0
   54.5382   17.2391   21.1030 H   0  0  0  0  0  0  0  0  0  0  0  0
   55.6283   14.9973   20.8604 H   0  0  0  0  0  0  0  0  0  0  0  0
   54.3154   12.8990   21.3179 H   0  0  0  0  0  0  0  0  0  0  0  0
   53.7054    8.8833   23.3070 H   0  0  0  0  0  0  0  0  0  0  0  0
   53.4998   11.3902   23.3498 H   0  0  0  0  0  0  0  0  0  0  0  0
   49.9313   11.0931   20.9177 H   0  0  0  0  0  0  0  0  0  0  0  0
   50.1370    8.6193   20.8701 H   0  0  0  0  0  0  0  0  0  0  0  0
   45.3147    7.6984   20.0128 H   0  0  0  0  0  0  0  0  0  0  0  0
   46.6634   10.1310   23.1580 H   0  0  0  0  0  0  0  0  0  0  0  0
   45.7980   11.0478   19.3200 H   0  0  0  0  0  0  0  0  0  0  0  0
   44.8964    9.8964   20.4201 H   0  0  0  0  0  0  0  0  0  0  0  0
   47.6527   11.0678   20.9572 H   0  0  0  0  0  0  0  0  0  0  0  0
   45.8416   12.7536   21.1243 H   0  0  0  0  0  0  0  0  0  0  0  0
   44.9863   11.6400   22.2934 H   0  0  0  0  0  0  0  0  0  0  0  0
   47.0985   11.7955   23.7460 H   0  0  0  0  0  0  0  0  0  0  0  0
   47.7537   14.2891   22.0457 H   0  0  0  0  0  0  0  0  0  0  0  0
   49.3663   12.0879   23.3511 H   0  0  0  0  0  0  0  0  0  0  0  0
   48.7301   15.6637   22.9839 H   0  0  0  0  0  0  0  0  0  0  0  0
   49.9015   16.7781   24.6344 H   0  0  0  0  0  0  0  0  0  0  0  0
   51.1645   17.3685   23.5018 H   0  0  0  0  0  0  0  0  0  0  0  0
   49.5345   18.1232   23.5018 H   0  0  0  0  0  0  0  0  0  0  0  0
   48.7144   17.8318   21.5137 H   0  0  0  0  0  0  0  0  0  0  0  0
   50.1325   17.1038   20.6856 H   0  0  0  0  0  0  0  0  0  0  0  0
   48.5544   16.2458   20.6856 H   0  0  0  0  0  0  0  0  0  0  0  0
   45.9597   13.3419   24.7408 H   0  0  0  0  0  0  0  0  0  0  0  0
  1  2  1  0
  2  3  2  0
  3  4  1  0
  4  5  2  0
  1  6  2  0
  5  6  1  0
  1  7  1  0
  7  8  2  0
  2  9  1  0
  8  9  1  0
 10 11  2  0
  7 12  1  0
 11 12  1  0
 12 13  2  0
 13 14  1  0
 10 15  1  0
 14 15  2  0
 15 16  1  0
 17 20  1  0
 18 20  2  0
 20 21  1  0
 19 22  1  0
 21 22  1  0
 22 23  1  0
 23 24  1  0
 24 25  1  0
  8 26  1  0
 25 26  2  0
  9 27  1  0
 27 28  1  0
 27 29  1  0
 24 30  1  0
  3 31  1  0
  4 32  1  0
  5 33  1  0
  6 34  1  0
 10 35  1  0
 11 36  1  0
 13 37  1  0
 14 38  1  0
 17 39  1  0
 19 40  1  0
 21 41  1  0
 21 42  1  0
 22 43  1  6
 23 44  1  0
 23 45  1  0
 24 46  1  1
 25 47  1  0
 26 48  1  0
 27 49  1  0
 28 50  1  0
 28 51  1  0
 28 52  1  0
 29 53  1  0
 29 54  1  0
 29 55  1  0
 30 56  1  0
M  END
$$$$
