PDB_DB00452_86
     RDKit          3D

 88 91  0  0  0  0  0  0  0  0999 V2000
  -46.9620  194.2770  116.6060 C   0  0  2  0  0  0  0  0  0  0  0  0
  -46.9440  193.2780  117.5970 O   0  0  0  0  0  0  0  0  0  0  0  0
  -46.1170  195.4340  117.1510 C   0  0  2  0  0  0  0  0  0  0  0  0
  -44.7780  195.0010  117.4200 N   0  0  0  0  0  0  0  0  0  0  0  0
  -46.6740  195.9560  118.4000 C   0  0  1  0  0  0  0  0  0  0  0  0
  -45.9850  197.1530  118.6770 O   0  0  0  0  0  0  0  0  0  0  0  0
  -48.0660  196.2430  118.2990 C   0  0  2  0  0  0  0  0  0  0  0  0
  -48.5860  196.4020  119.5990 O   0  0  0  0  0  0  0  0  0  0  0  0
  -48.8580  195.1510  117.6440 C   0  0  2  0  0  0  0  0  0  0  0  0
  -48.2490  194.7050  116.3440 O   0  0  0  0  0  0  0  0  0  0  0  0
  -50.3090  195.5320  117.5390 C   0  0  0  0  0  0  0  0  0  0  0  0
  -45.7520  189.2790  117.3990 C   0  0  1  0  0  0  0  0  0  0  0  0
  -45.5140  187.9240  116.9440 N   0  0  0  0  0  0  0  0  0  0  0  0
  -44.8340  190.2870  116.7190 C   0  0  1  0  0  0  0  0  0  0  0  0
  -45.1730  191.7290  117.1550 C   0  0  1  0  0  0  0  0  0  0  0  0
  -44.4590  192.7830  116.5140 O   0  0  0  0  0  0  0  0  0  0  0  0
  -46.6390  192.0150  117.0480 C   0  0  1  0  0  0  0  0  0  0  0  0
  -47.4870  190.9790  117.7670 C   0  0  1  0  0  0  0  0  0  0  0  0
  -48.8650  191.3270  117.6500 N   0  0  0  0  0  0  0  0  0  0  0  0
  -47.2030  189.5940  117.1990 C   0  0  0  0  0  0  0  0  0  0  0  0
  -43.4220  192.4810  115.5840 C   0  0  1  0  0  0  0  0  0  0  0  0
  -43.1750  193.6430  114.6830 C   0  0  1  0  0  0  0  0  0  0  0  0
  -41.7800  193.9510  114.7520 C   0  0  1  0  0  0  0  0  0  0  0  0
  -41.4080  193.3650  116.0720 C   0  0  2  0  0  0  0  0  0  0  0  0
  -42.1310  192.1760  116.1550 O   0  0  0  0  0  0  0  0  0  0  0  0
  -41.7600  194.1740  117.3060 C   0  0  0  0  0  0  0  0  0  0  0  0
  -38.6420  193.2870  111.2370 C   0  0  1  0  0  0  0  0  0  0  0  0
  -39.9610  192.7560  110.8530 C   0  0  1  0  0  0  0  0  0  0  0  0
  -41.0480  193.6050  111.1390 C   0  0  2  0  0  0  0  0  0  0  0  0
  -41.0210  194.2410  112.4920 C   0  0  1  0  0  0  0  0  0  0  0  0
  -41.1310  193.3550  113.6130 O   0  0  0  0  0  0  0  0  0  0  0  0
  -38.6070  194.5250  112.1360 C   0  0  1  0  0  0  0  0  0  0  0  0
  -39.8080  195.0940  112.5690 O   0  0  0  0  0  0  0  0  0  0  0  0
  -37.8530  194.2770  113.4230 C   0  0  0  0  0  0  0  0  0  0  0  0
  -50.6230  196.9270  117.2200 N   0  0  0  0  0  0  0  0  0  0  0  0
  -43.5160  193.1980  113.4370 O   0  0  0  0  0  0  0  0  0  0  0  0
  -39.9260  192.5910  109.4290 O   0  0  0  0  0  0  0  0  0  0  0  0
  -37.9090  192.2430  111.8420 O   0  0  0  0  0  0  0  0  0  0  0  0
  -42.8090  193.7590  118.0780 O   0  0  0  0  0  0  0  0  0  0  0  0
  -43.5710  189.9840  117.0890 O   0  0  0  0  0  0  0  0  0  0  0  0
  -38.6150  193.6800  114.4900 N   0  0  0  0  0  0  0  0  0  0  0  0
  -42.2200  192.7460  111.0660 N   0  0  0  0  0  0  0  0  0  0  0  0
  -46.5612  193.8903  115.6574 H   0  0  0  0  0  0  0  0  0  0  0  0
  -46.1201  196.2202  116.3816 H   0  0  0  0  0  0  0  0  0  0  0  0
  -44.6306  194.9533  118.4383 H   0  0  0  0  0  0  0  0  0  0  0  0
  -44.6292  194.0690  117.0075 H   0  0  0  0  0  0  0  0  0  0  0  0
  -46.5573  195.2007  119.1911 H   0  0  0  0  0  0  0  0  0  0  0  0
  -45.9152  197.2743  119.6570 H   0  0  0  0  0  0  0  0  0  0  0  0
  -48.1545  197.1490  117.6815 H   0  0  0  0  0  0  0  0  0  0  0  0
  -47.8843  196.1874  120.2636 H   0  0  0  0  0  0  0  0  0  0  0  0
  -48.8170  194.2618  118.2903 H   0  0  0  0  0  0  0  0  0  0  0  0
  -50.7576  194.9059  116.7536 H   0  0  0  0  0  0  0  0  0  0  0  0
  -50.7116  195.3797  118.5513 H   0  0  0  0  0  0  0  0  0  0  0  0
  -45.5104  189.3547  118.4695 H   0  0  0  0  0  0  0  0  0  0  0  0
  -45.4049  187.3026  117.7582 H   0  0  0  0  0  0  0  0  0  0  0  0
  -46.3123  187.6076  116.3752 H   0  0  0  0  0  0  0  0  0  0  0  0
  -44.9572  190.2349  115.6272 H   0  0  0  0  0  0  0  0  0  0  0  0
  -44.8361  191.7334  118.2021 H   0  0  0  0  0  0  0  0  0  0  0  0
  -46.8745  191.9889  115.9738 H   0  0  0  0  0  0  0  0  0  0  0  0
  -47.2312  190.9597  118.8367 H   0  0  0  0  0  0  0  0  0  0  0  0
  -49.2740  191.4303  118.5897 H   0  0  0  0  0  0  0  0  0  0  0  0
  -48.9522  192.2164  117.1379 H   0  0  0  0  0  0  0  0  0  0  0  0
  -47.4400  189.5790  116.1249 H   0  0  0  0  0  0  0  0  0  0  0  0
  -47.8227  188.8446  117.7132 H   0  0  0  0  0  0  0  0  0  0  0  0
  -43.8037  191.5842  115.0740 H   0  0  0  0  0  0  0  0  0  0  0  0
  -43.7440  194.5468  114.9465 H   0  0  0  0  0  0  0  0  0  0  0  0
  -41.4943  195.0122  114.7043 H   0  0  0  0  0  0  0  0  0  0  0  0
  -40.3110  193.2846  116.0852 H   0  0  0  0  0  0  0  0  0  0  0  0
  -40.8684  194.1894  117.9500 H   0  0  0  0  0  0  0  0  0  0  0  0
  -42.0853  195.1465  116.9080 H   0  0  0  0  0  0  0  0  0  0  0  0
  -38.2017  193.6495  110.2964 H   0  0  0  0  0  0  0  0  0  0  0  0
  -40.1224  191.8329  111.4290 H   0  0  0  0  0  0  0  0  0  0  0  0
  -41.0307  194.4436  110.4273 H   0  0  0  0  0  0  0  0  0  0  0  0
  -41.9403  194.8383  112.5821 H   0  0  0  0  0  0  0  0  0  0  0  0
  -38.1343  195.2226  111.4290 H   0  0  0  0  0  0  0  0  0  0  0  0
  -37.0087  193.6093  113.1964 H   0  0  0  0  0  0  0  0  0  0  0  0
  -37.5520  195.2695  113.7894 H   0  0  0  0  0  0  0  0  0  0  0  0
  -50.7430  197.4602  118.0930 H   0  0  0  0  0  0  0  0  0  0  0  0
  -49.8529  197.3355  116.6713 H   0  0  0  0  0  0  0  0  0  0  0  0
  -44.1161  192.4149  113.5191 H   0  0  0  0  0  0  0  0  0  0  0  0
  -39.7256  191.6463  109.2111 H   0  0  0  0  0  0  0  0  0  0  0  0
  -37.9675  192.3263  112.8268 H   0  0  0  0  0  0  0  0  0  0  0  0
  -42.5721  193.8527  119.0346 H   0  0  0  0  0  0  0  0  0  0  0  0
  -43.5111  189.9696  118.0771 H   0  0  0  0  0  0  0  0  0  0  0  0
  -38.2304  193.9813  115.3968 H   0  0  0  0  0  0  0  0  0  0  0  0
  -39.5983  193.9780  114.4180 H   0  0  0  0  0  0  0  0  0  0  0  0
  -42.5359  192.5145  112.0186 H   0  0  0  0  0  0  0  0  0  0  0  0
  -42.9741  193.2360  110.5638 H   0  0  0  0  0  0  0  0  0  0  0  0
  2  1  1  0
  3  1  1  0
  4  3  1  0
  5  3  1  0
  6  5  1  0
  7  5  1  0
  8  7  1  0
  9  7  1  0
 10  9  1  0
 10  1  1  0
 11  9  1  0
 13 12  1  0
 14 12  1  0
 15 14  1  0
 16 15  1  0
 17 15  1  0
 17  2  1  0
 18 17  1  0
 19 18  1  0
 20 12  1  0
 20 18  1  0
 21 16  1  0
 22 21  1  0
 23 22  1  0
 24 23  1  0
 25 24  1  0
 25 21  1  0
 26 24  1  0
 28 27  1  0
 29 28  1  0
 30 29  1  0
 31 30  1  0
 31 23  1  0
 32 27  1  0
 33 32  1  0
 33 30  1  0
 34 32  1  0
 35 11  1  0
 36 22  1  0
 37 28  1  0
 38 27  1  0
 39 26  1  0
 40 14  1  0
 41 34  1  0
 42 29  1  0
  1 43  1  6
  3 44  1  6
  4 45  1  0
  4 46  1  0
  5 47  1  1
  6 48  1  0
  7 49  1  6
  8 50  1  0
  9 51  1  1
 11 52  1  0
 11 53  1  0
 12 54  1  1
 13 55  1  0
 13 56  1  0
 14 57  1  6
 15 58  1  1
 17 59  1  6
 18 60  1  1
 19 61  1  0
 19 62  1  0
 20 63  1  0
 20 64  1  0
 21 65  1  6
 22 66  1  1
 23 67  1  1
 24 68  1  6
 26 69  1  0
 26 70  1  0
 27 71  1  6
 28 72  1  1
 29 73  1  6
 30 74  1  6
 32 75  1  6
 34 76  1  0
 34 77  1  0
 35 78  1  0
 35 79  1  0
 36 80  1  0
 37 81  1  0
 38 82  1  0
 39 83  1  0
 40 84  1  0
 41 85  1  0
 41 86  1  0
 42 87  1  0
 42 88  1  0
M  END
$$$$
