PDB_DB08912_96
     RDKit          3D

 55 58  0  0  0  0  0  0  0  0999 V2000
  -80.0330   39.4230  106.4600 C   0  0  0  0  0  0  0  0  0  0  0  0
  -81.7130   38.4860  105.1400 C   0  0  0  0  0  0  0  0  0  0  0  0
  -80.4970   39.0370  105.2790 N   0  0  0  0  0  0  0  0  0  0  0  0
  -82.4420   38.2100  106.3130 C   0  0  0  0  0  0  0  0  0  0  0  0
  -80.7400   39.2250  107.5630 N   0  0  0  0  0  0  0  0  0  0  0  0
  -81.9330   38.6400  107.5260 C   0  0  0  0  0  0  0  0  0  0  0  0
  -78.7810   40.0080  106.5400 N   0  0  0  0  0  0  0  0  0  0  0  0
  -82.1190   38.0150  103.7960 C   0  0  0  0  0  0  0  0  0  0  0  0
  -81.0280   38.0650  102.4060 S   0  0  0  0  0  0  0  0  0  0  0  0
  -82.1540   37.2260  101.4230 C   0  0  0  0  0  0  0  0  0  0  0  0
  -83.2320   37.0050  102.1010 N   0  0  0  0  0  0  0  0  0  0  0  0
  -83.2810   37.3830  103.3750 C   0  0  0  0  0  0  0  0  0  0  0  0
  -81.9560   36.8500   99.9640 C   0  0  0  0  0  0  0  0  0  0  0  0
  -82.5270   37.9550   99.0850 C   0  0  0  0  0  0  0  0  0  0  0  0
  -80.4850   36.5800   99.6350 C   0  0  0  0  0  0  0  0  0  0  0  0
  -82.6900   35.5650   99.6100 C   0  0  0  0  0  0  0  0  0  0  0  0
  -84.5490   37.1980  104.1350 C   0  0  0  0  0  0  0  0  0  0  0  0
  -86.4070   35.7490  104.7030 C   0  0  0  0  0  0  0  0  0  0  0  0
  -85.1500   35.9380  104.1230 C   0  0  0  0  0  0  0  0  0  0  0  0
  -87.0710   36.8420  105.2930 C   0  0  0  0  0  0  0  0  0  0  0  0
  -85.2630   38.2950  104.6640 C   0  0  0  0  0  0  0  0  0  0  0  0
  -86.4970   38.1090  105.2700 C   0  0  0  0  0  0  0  0  0  0  0  0
  -84.4880   34.9130  103.5530 F   0  0  0  0  0  0  0  0  0  0  0  0
  -86.8900   34.4350  104.7730 N   0  0  0  0  0  0  0  0  0  0  0  0
  -88.4820   33.9810  104.8130 S   0  0  0  0  0  0  0  0  0  0  0  0
  -89.0040   34.1500  106.5050 C   0  0  0  0  0  0  0  0  0  0  0  0
  -88.7460   33.4040  108.7870 C   0  0  0  0  0  0  0  0  0  0  0  0
  -88.3920   33.3110  107.4430 C   0  0  0  0  0  0  0  0  0  0  0  0
  -89.7040   34.3200  109.2030 C   0  0  0  0  0  0  0  0  0  0  0  0
  -89.9700   35.0890  106.9380 C   0  0  0  0  0  0  0  0  0  0  0  0
  -90.3310   35.1490  108.2840 C   0  0  0  0  0  0  0  0  0  0  0  0
  -90.6120   35.9090  106.0710 F   0  0  0  0  0  0  0  0  0  0  0  0
  -87.4210   32.4450  107.0500 F   0  0  0  0  0  0  0  0  0  0  0  0
  -89.2550   34.8460  103.9830 O   0  0  0  0  0  0  0  0  0  0  0  0
  -88.4230   32.5840  104.5830 O   0  0  0  0  0  0  0  0  0  0  0  0
  -83.3959   37.6642  106.2660 H   0  0  0  0  0  0  0  0  0  0  0  0
  -82.5107   38.4989  108.4514 H   0  0  0  0  0  0  0  0  0  0  0  0
  -78.4116   40.3112  107.4524 H   0  0  0  0  0  0  0  0  0  0  0  0
  -78.2188   40.1401  105.6871 H   0  0  0  0  0  0  0  0  0  0  0  0
  -82.9392   38.7528   99.7203 H   0  0  0  0  0  0  0  0  0  0  0  0
  -81.7292   38.3675   98.4499 H   0  0  0  0  0  0  0  0  0  0  0  0
  -83.3250   37.5428   98.4499 H   0  0  0  0  0  0  0  0  0  0  0  0
  -79.9136   36.4751  100.5691 H   0  0  0  0  0  0  0  0  0  0  0  0
  -80.4045   35.6521   99.0498 H   0  0  0  0  0  0  0  0  0  0  0  0
  -80.0802   37.4189   99.0498 H   0  0  0  0  0  0  0  0  0  0  0  0
  -82.9865   35.0458  100.5333 H   0  0  0  0  0  0  0  0  0  0  0  0
  -83.5869   35.8056   99.0204 H   0  0  0  0  0  0  0  0  0  0  0  0
  -82.0272   34.9146   99.0204 H   0  0  0  0  0  0  0  0  0  0  0  0
  -88.0487   36.6930  105.7746 H   0  0  0  0  0  0  0  0  0  0  0  0
  -84.8369   39.3068  104.5950 H   0  0  0  0  0  0  0  0  0  0  0  0
  -87.0197   38.9602  105.7306 H   0  0  0  0  0  0  0  0  0  0  0  0
  -86.1889   33.6810  104.8023 H   0  0  0  0  0  0  0  0  0  0  0  0
  -88.2630   32.7467  109.5250 H   0  0  0  0  0  0  0  0  0  0  0  0
  -89.9674   34.3885  110.2688 H   0  0  0  0  0  0  0  0  0  0  0  0
  -91.1101   35.8511  108.6157 H   0  0  0  0  0  0  0  0  0  0  0  0
  1  3  2  0
  2  3  1  0
  2  4  2  0
  1  5  1  0
  4  6  1  0
  5  6  2  0
  1  7  1  0
  2  8  1  0
  8  9  1  0
  9 10  1  0
 10 11  2  0
  8 12  2  0
 11 12  1  0
 10 13  1  0
 13 14  1  0
 13 15  1  0
 13 16  1  0
 12 17  1  0
 17 19  2  0
 18 19  1  0
 18 20  2  0
 17 21  1  0
 20 22  1  0
 21 22  2  0
 19 23  1  0
 18 24  1  0
 24 25  1  0
 25 26  1  0
 26 28  1  0
 27 28  2  0
 27 29  1  0
 26 30  2  0
 29 31  2  0
 30 31  1  0
 30 32  1  0
 28 33  1  0
 25 34  2  0
 25 35  2  0
  4 36  1  0
  6 37  1  0
  7 38  1  0
  7 39  1  0
 14 40  1  0
 14 41  1  0
 14 42  1  0
 15 43  1  0
 15 44  1  0
 15 45  1  0
 16 46  1  0
 16 47  1  0
 16 48  1  0
 20 49  1  0
 21 50  1  0
 22 51  1  0
 24 52  1  0
 27 53  1  0
 29 54  1  0
 31 55  1  0
M  END
$$$$
