PDB_DB04876_99
     RDKit          3D

 47 50  0  0  0  0  0  0  0  0999 V2000
   36.7730   52.0420   36.3790 O   0  0  0  0  0  0  0  0  0  0  0  0
   37.0330   50.9960   35.7850 C   0  0  0  0  0  0  0  0  0  0  0  0
   36.2240   49.8830   35.8120 N   0  0  0  0  0  0  0  0  0  0  0  0
   36.4910   48.6330   35.0980 C   0  0  0  0  0  0  0  0  0  0  0  0
   35.2000   47.8100   35.2720 C   0  0  0  0  0  0  0  0  0  0  0  0
   34.1500   48.8630   35.6320 C   0  0  0  0  0  0  0  0  0  0  0  0
   34.9350   49.8510   36.4880 C   0  0  1  0  0  0  0  0  0  0  0  0
   35.1110   49.4970   37.9560 C   0  0  0  0  0  0  0  0  0  0  0  0
   35.9170   48.6660   38.5030 N   0  0  0  0  0  0  0  0  0  0  0  0
   38.2860   50.8230   34.9580 C   0  0  0  0  0  0  0  0  0  0  0  0
   39.2000   52.0090   35.0190 N   0  0  0  0  0  0  0  0  0  0  0  0
   40.2550   51.8940   36.0790 C   0  0  1  0  0  0  0  0  0  0  0  0
   39.6770   51.4130   37.4360 C   0  0  0  0  0  0  0  0  0  0  0  0
   40.8330   51.2490   38.4390 C   0  0  1  0  0  0  0  0  0  0  0  0
   41.9260   50.3010   37.9000 C   0  0  0  0  0  0  0  0  0  0  0  0
   42.4940   50.8430   36.5820 C   0  0  1  0  0  0  0  0  0  0  0  0
   41.3010   50.8770   35.5890 C   0  0  0  0  0  0  0  0  0  0  0  0
   43.0540   52.2570   36.8180 C   0  0  0  0  0  0  0  0  0  0  0  0
   41.4370   52.6380   38.6810 C   0  0  0  0  0  0  0  0  0  0  0  0
   41.9780   53.1950   37.3670 C   0  0  1  0  0  0  0  0  0  0  0  0
   42.5030   54.4770   37.6430 O   0  0  0  0  0  0  0  0  0  0  0  0
   40.8680   53.2900   36.3100 C   0  0  0  0  0  0  0  0  0  0  0  0
   36.6885   48.8272   34.0334 H   0  0  0  0  0  0  0  0  0  0  0  0
   37.3777   48.1097   35.4853 H   0  0  0  0  0  0  0  0  0  0  0  0
   34.9343   47.2934   34.3379 H   0  0  0  0  0  0  0  0  0  0  0  0
   35.2942   47.0216   36.0333 H   0  0  0  0  0  0  0  0  0  0  0  0
   33.7530   49.3503   34.7293 H   0  0  0  0  0  0  0  0  0  0  0  0
   33.2739   48.4431   36.1478 H   0  0  0  0  0  0  0  0  0  0  0  0
   34.3940   50.8064   36.5549 H   0  0  0  0  0  0  0  0  0  0  0  0
   38.8308   49.9420   35.3282 H   0  0  0  0  0  0  0  0  0  0  0  0
   37.9731   50.7040   33.9102 H   0  0  0  0  0  0  0  0  0  0  0  0
   39.6647   52.1104   34.1054 H   0  0  0  0  0  0  0  0  0  0  0  0
   38.9604   52.1558   37.8164 H   0  0  0  0  0  0  0  0  0  0  0  0
   39.1603   50.4513   37.3016 H   0  0  0  0  0  0  0  0  0  0  0  0
   40.4457   50.8093   39.3700 H   0  0  0  0  0  0  0  0  0  0  0  0
   42.7362   50.2225   38.6399 H   0  0  0  0  0  0  0  0  0  0  0  0
   41.4847   49.3096   37.7201 H   0  0  0  0  0  0  0  0  0  0  0  0
   43.3125   50.2225   36.1881 H   0  0  0  0  0  0  0  0  0  0  0  0
   40.8430   49.8785   35.5317 H   0  0  0  0  0  0  0  0  0  0  0  0
   41.6614   51.1726   34.5926 H   0  0  0  0  0  0  0  0  0  0  0  0
   43.8816   52.1989   37.5403 H   0  0  0  0  0  0  0  0  0  0  0  0
   43.4057   52.6568   35.8555 H   0  0  0  0  0  0  0  0  0  0  0  0
   40.6608   53.3119   39.0727 H   0  0  0  0  0  0  0  0  0  0  0  0
   42.2568   52.5588   39.4102 H   0  0  0  0  0  0  0  0  0  0  0  0
   42.5565   54.6077   38.6229 H   0  0  0  0  0  0  0  0  0  0  0  0
   41.2916   53.6648   35.3666 H   0  0  0  0  0  0  0  0  0  0  0  0
   40.0862   53.9794   36.6613 H   0  0  0  0  0  0  0  0  0  0  0  0
  1  2  2  0
  2  3  1  0
  3  4  1  0
  4  5  1  0
  5  6  1  0
  3  7  1  0
  6  7  1  0
  7  8  1  0
  8  9  3  0
  2 10  1  0
 10 11  1  0
 12 11  1  1
 12 13  1  0
 13 14  1  0
 14 15  1  0
 15 16  1  0
 12 17  1  0
 16 17  1  0
 16 18  1  0
 14 19  1  0
 18 20  1  0
 19 20  1  0
 20 21  1  1
 12 22  1  0
 20 22  1  0
  4 23  1  0
  4 24  1  0
  5 25  1  0
  5 26  1  0
  6 27  1  0
  6 28  1  0
  7 29  1  1
 10 30  1  0
 10 31  1  0
 11 32  1  0
 13 33  1  0
 13 34  1  0
 14 35  1  1
 15 36  1  0
 15 37  1  0
 16 38  1  6
 17 39  1  0
 17 40  1  0
 18 41  1  0
 18 42  1  0
 19 43  1  0
 19 44  1  0
 21 45  1  0
 22 46  1  0
 22 47  1  0
M  END
$$$$
