PDB_DB00558_85
     RDKit          3D

 43 43  0  0  0  0  0  0  0  0999 V2000
   -6.6150   45.8180   56.0190 C   0  0  0  0  0  0  0  0  0  0  0  0
   -7.6420   46.5040   55.7560 O   0  0  0  0  0  0  0  0  0  0  0  0
   -6.7440   44.8560   56.8140 O   0  0  0  0  0  0  0  0  0  0  0  0
   -5.3930   46.1420   55.4720 C   0  0  0  0  0  0  0  0  0  0  0  0
   -4.3940   44.9560   55.2580 C   0  0  0  0  0  0  0  0  0  0  0  0
   -3.2960   45.2470   54.3120 C   0  0  1  0  0  0  0  0  0  0  0  0
   -3.3060   46.5520   53.7720 C   0  0  1  0  0  0  0  0  0  0  0  0
   -2.2900   46.5860   52.6030 N   0  0  0  0  0  0  0  0  0  0  0  0
   -1.0240   47.2410   52.6760 C   0  0  0  0  0  0  0  0  0  0  0  0
   -0.6490   47.8500   53.6710 O   0  0  0  0  0  0  0  0  0  0  0  0
   -0.1850   47.1400   51.4490 C   0  0  0  0  0  0  0  0  0  0  0  0
   -4.5900   46.9310   53.2260 C   0  0  1  0  0  0  0  0  0  0  0  0
   -5.6890   46.6870   54.1130 O   0  0  0  0  0  0  0  0  0  0  0  0
   -4.6910   48.3770   52.7250 C   0  0  2  0  0  0  0  0  0  0  0  0
   -4.4220   49.2760   53.7180 O   0  0  0  0  0  0  0  0  0  0  0  0
   -6.0980   48.6270   52.2050 C   0  0  2  0  0  0  0  0  0  0  0  0
   -6.4310   47.6220   51.3180 O   0  0  0  0  0  0  0  0  0  0  0  0
   -6.2260   49.9710   51.5150 C   0  0  0  0  0  0  0  0  0  0  0  0
   -5.3700   50.1660   50.4280 O   0  0  0  0  0  0  0  0  0  0  0  0
   -1.9240   44.9770   54.9940 N   0  0  0  0  0  0  0  0  0  0  0  0
   -0.8440   44.2550   54.3560 C   0  0  0  0  0  0  0  0  0  0  0  0
   -1.0140   43.5270   53.2540 N   0  0  0  0  0  0  0  0  0  0  0  0
    0.3180   44.2940   54.9290 N   0  0  0  0  0  0  0  0  0  0  0  0
   -7.5789   47.2708   55.1331 H   0  0  0  0  0  0  0  0  0  0  0  0
   -4.5001   43.9875   55.7686 H   0  0  0  0  0  0  0  0  0  0  0  0
   -3.4575   44.5697   53.4605 H   0  0  0  0  0  0  0  0  0  0  0  0
   -3.0611   47.2481   54.5877 H   0  0  0  0  0  0  0  0  0  0  0  0
   -2.5419   46.1099   51.7251 H   0  0  0  0  0  0  0  0  0  0  0  0
    0.8695   47.0131   51.7353 H   0  0  0  0  0  0  0  0  0  0  0  0
   -0.5099   46.2745   50.8529 H   0  0  0  0  0  0  0  0  0  0  0  0
   -0.2952   48.0579   50.8529 H   0  0  0  0  0  0  0  0  0  0  0  0
   -4.6622   46.2657   52.3530 H   0  0  0  0  0  0  0  0  0  0  0  0
   -3.9471   48.5122   51.9260 H   0  0  0  0  0  0  0  0  0  0  0  0
   -4.5515   48.8432   54.5989 H   0  0  0  0  0  0  0  0  0  0  0  0
   -6.7820   48.6334   53.0665 H   0  0  0  0  0  0  0  0  0  0  0  0
   -6.6991   46.8129   51.8215 H   0  0  0  0  0  0  0  0  0  0  0  0
   -7.2607   50.0717   51.1556 H   0  0  0  0  0  0  0  0  0  0  0  0
   -5.9452   50.7263   52.2638 H   0  0  0  0  0  0  0  0  0  0  0  0
   -4.4598   50.3733   50.7577 H   0  0  0  0  0  0  0  0  0  0  0  0
   -0.2141   43.0306   52.8362 H   0  0  0  0  0  0  0  0  0  0  0  0
   -1.9454   43.4603   52.8194 H   0  0  0  0  0  0  0  0  0  0  0  0
    1.1157   43.7947   54.5103 H   0  0  0  0  0  0  0  0  0  0  0  0
    0.4437   44.8242   55.8030 H   0  0  0  0  0  0  0  0  0  0  0  0
  1  2  1  0
  1  3  2  0
  1  4  1  0
  4  5  2  0
  5  6  1  0
  6  7  1  0
  7  8  1  0
  8  9  1  0
  9 10  2  0
  9 11  1  0
  7 12  1  0
  4 13  1  0
 12 13  1  0
 12 14  1  0
 14 15  1  0
 14 16  1  0
 16 17  1  0
 16 18  1  0
 18 19  1  0
  6 20  1  0
 20 21  2  3
 21 22  1  0
 21 23  1  0
  2 24  1  0
  5 25  1  0
  6 26  1  6
  7 27  1  1
  8 28  1  0
 11 29  1  0
 11 30  1  0
 11 31  1  0
 12 32  1  6
 14 33  1  6
 15 34  1  0
 16 35  1  1
 17 36  1  0
 18 37  1  0
 18 38  1  0
 19 39  1  0
 22 40  1  0
 22 41  1  0
 23 42  1  0
 23 43  1  0
M  END
$$$$
