PDB_DB01044_97
     RDKit          3D

 49 52  0  0  0  0  0  0  0  0999 V2000
   -2.9790   21.6300  135.7160 C   0  0  0  0  0  0  0  0  0  0  0  0
   -2.6070   20.6660  136.8530 C   0  0  1  0  0  0  0  0  0  0  0  0
   -3.8150   20.4930  137.7640 C   0  0  0  0  0  0  0  0  0  0  0  0
   -3.5440   19.5170  138.7760 N   0  0  0  0  0  0  0  0  0  0  0  0
   -3.0910   18.2590  138.2770 C   0  0  0  0  0  0  0  0  0  0  0  0
   -1.9290   18.4240  137.3000 C   0  0  0  0  0  0  0  0  0  0  0  0
   -2.1830   19.4180  136.3020 N   0  0  0  0  0  0  0  0  0  0  0  0
   -4.4840   19.4160  139.9030 C   0  0  0  0  0  0  0  0  0  0  0  0
   -3.9310   19.2970  141.1780 C   0  0  0  0  0  0  0  0  0  0  0  0
   -4.7520   19.1950  142.2980 C   0  0  0  0  0  0  0  0  0  0  0  0
   -6.1580   19.2120  142.1590 C   0  0  0  0  0  0  0  0  0  0  0  0
   -6.7410   19.3300  140.9070 C   0  0  0  0  0  0  0  0  0  0  0  0
   -5.8820   19.4350  139.7600 C   0  0  0  0  0  0  0  0  0  0  0  0
   -6.4170   19.5510  138.4550 O   0  0  0  0  0  0  0  0  0  0  0  0
   -6.6780   18.2830  137.8460 C   0  0  0  0  0  0  0  0  0  0  0  0
   -8.1330   19.3440  140.8540 N   0  0  0  0  0  0  0  0  0  0  0  0
   -8.8890   19.2430  141.9680 C   0  0  0  0  0  0  0  0  0  0  0  0
   -8.3190   19.1230  143.2290 C   0  0  0  0  0  0  0  0  0  0  0  0
   -6.9340   19.1070  143.3400 C   0  0  0  0  0  0  0  0  0  0  0  0
   -6.4140   19.0080  144.4370 O   0  0  0  0  0  0  0  0  0  0  0  0
   -9.2010   19.0090  144.4580 C   0  0  0  0  0  0  0  0  0  0  0  0
   -8.6930   19.0910  145.6120 O   0  0  0  0  0  0  0  0  0  0  0  0
  -10.4400   18.8270  144.3120 O   0  0  0  0  0  0  0  0  0  0  0  0
   -8.8760   19.4720  139.6230 C   0  0  0  0  0  0  0  0  0  0  0  0
   -9.1390   20.5410  138.5730 C   0  0  0  0  0  0  0  0  0  0  0  0
  -10.1690   20.2790  139.6470 C   0  0  0  0  0  0  0  0  0  0  0  0
   -2.5960   19.2790  141.3220 F   0  0  0  0  0  0  0  0  0  0  0  0
   -3.3441   22.5761  136.1421 H   0  0  0  0  0  0  0  0  0  0  0  0
   -2.0917   21.8254  135.0959 H   0  0  0  0  0  0  0  0  0  0  0  0
   -3.7675   21.1787  135.0959 H   0  0  0  0  0  0  0  0  0  0  0  0
   -1.7749   21.0713  137.4474 H   0  0  0  0  0  0  0  0  0  0  0  0
   -4.0483   21.4556  138.2426 H   0  0  0  0  0  0  0  0  0  0  0  0
   -4.6696   20.1524  137.1609 H   0  0  0  0  0  0  0  0  0  0  0  0
   -2.7602   17.6383  139.1227 H   0  0  0  0  0  0  0  0  0  0  0  0
   -3.9249   17.7826  137.7406 H   0  0  0  0  0  0  0  0  0  0  0  0
   -1.0319   18.7150  137.8662 H   0  0  0  0  0  0  0  0  0  0  0  0
   -1.7902   17.4627  136.7836 H   0  0  0  0  0  0  0  0  0  0  0  0
   -2.9199   19.0700  135.6721 H   0  0  0  0  0  0  0  0  0  0  0  0
   -4.3030   19.1006  143.2977 H   0  0  0  0  0  0  0  0  0  0  0  0
   -6.8339   17.5256  138.6284 H   0  0  0  0  0  0  0  0  0  0  0  0
   -7.5801   18.3553  137.2207 H   0  0  0  0  0  0  0  0  0  0  0  0
   -5.8207   17.9931  137.2207 H   0  0  0  0  0  0  0  0  0  0  0  0
   -9.9849   19.2561  141.8746 H   0  0  0  0  0  0  0  0  0  0  0  0
   -9.2698   19.0164  146.4132 H   0  0  0  0  0  0  0  0  0  0  0  0
   -8.4350   18.4763  139.4677 H   0  0  0  0  0  0  0  0  0  0  0  0
   -8.5596   21.4760  138.5843 H   0  0  0  0  0  0  0  0  0  0  0  0
   -9.1529   20.5613  137.4733 H   0  0  0  0  0  0  0  0  0  0  0  0
  -11.1229   19.7965  139.3876 H   0  0  0  0  0  0  0  0  0  0  0  0
  -10.6849   20.8976  140.3961 H   0  0  0  0  0  0  0  0  0  0  0  0
  1  2  1  0
  2  3  1  0
  3  4  1  0
  4  5  1  0
  5  6  1  0
  2  7  1  0
  6  7  1  0
  4  8  1  0
  8  9  2  0
  9 10  1  0
 10 11  2  0
 11 12  1  0
  8 13  1  0
 12 13  2  0
 13 14  1  0
 14 15  1  0
 12 16  1  0
 16 17  1  0
 17 18  2  0
 11 19  1  0
 18 19  1  0
 19 20  2  0
 18 21  1  0
 21 22  1  0
 21 23  2  0
 16 24  1  0
 24 25  1  0
 24 26  1  0
 25 26  1  0
  9 27  1  0
  1 28  1  0
  1 29  1  0
  1 30  1  0
  2 31  1  1
  3 32  1  0
  3 33  1  0
  5 34  1  0
  5 35  1  0
  6 36  1  0
  6 37  1  0
  7 38  1  0
 10 39  1  0
 15 40  1  0
 15 41  1  0
 15 42  1  0
 17 43  1  0
 22 44  1  0
 24 45  1  0
 25 46  1  0
 25 47  1  0
 26 48  1  0
 26 49  1  0
M  END
$$$$
