PDB_DB01409_96
     RDKit          3D

 48 52  0  0  0  0  0  0  0  0999 V2000
   61.6850    0.6780   92.4540 C   0  0  0  0  0  0  0  0  0  0  0  0
   62.5460    1.1140   91.6980 O   0  0  0  0  0  0  0  0  0  0  0  0
   59.7650   -0.7170   91.8890 C   0  0  0  0  0  0  0  0  0  0  0  0
   59.4330    1.3220   93.2020 C   0  0  0  0  0  0  0  0  0  0  0  0
   60.5260   -1.8640   91.8370 C   0  0  0  0  0  0  0  0  0  0  0  0
   59.9070   -3.0630   91.6520 C   0  0  0  0  0  0  0  0  0  0  0  0
   58.5420   -3.0870   91.5230 C   0  0  0  0  0  0  0  0  0  0  0  0
   58.9030    0.6820   94.2940 C   0  0  0  0  0  0  0  0  0  0  0  0
   58.2110    1.3900   95.2170 C   0  0  0  0  0  0  0  0  0  0  0  0
   58.0510    2.7410   95.0380 C   0  0  0  0  0  0  0  0  0  0  0  0
   61.2140    0.4490   97.5870 O   0  0  0  0  0  0  0  0  0  0  0  0
   62.0130    0.1390   93.7120 O   0  0  0  0  0  0  0  0  0  0  0  0
   60.1180    1.4160   90.9130 O   0  0  0  0  0  0  0  0  0  0  0  0
   58.1200   -1.3520   91.6680 S   0  0  0  0  0  0  0  0  0  0  0  0
   58.9270    3.0070   93.4890 S   0  0  0  0  0  0  0  0  0  0  0  0
   65.3920    0.0350   96.8680 C   0  0  0  0  0  0  0  0  0  0  0  0
   63.2140   -0.8290   96.5280 C   0  0  2  0  0  0  0  0  0  0  0  0
   63.4840   -1.1070   95.0780 C   0  0  0  0  0  0  0  0  0  0  0  0
   63.3300    0.1300   94.2210 C   0  0  2  0  0  0  0  0  0  0  0  0
   63.6330    1.4240   94.9580 C   0  0  0  0  0  0  0  0  0  0  0  0
   63.3740    1.2910   96.4370 C   0  0  1  0  0  0  0  0  0  0  0  0
   61.8580    1.0870   96.4870 C   0  0  1  0  0  0  0  0  0  0  0  0
   61.7530   -0.3800   96.5560 C   0  0  2  0  0  0  0  0  0  0  0  0
   63.9480    0.2730   98.5420 C   0  0  0  0  0  0  0  0  0  0  0  0
   60.2280    0.7000   92.0800 C   0  0  0  0  0  0  0  0  0  0  0  0
   63.9920    0.1960   97.0860 N   0  0  0  0  0  0  0  0  0  0  0  0
   61.6196   -1.8122   91.9435 H   0  0  0  0  0  0  0  0  0  0  0  0
   60.4908   -3.9942   91.6069 H   0  0  0  0  0  0  0  0  0  0  0  0
   57.8771   -3.9498   91.3699 H   0  0  0  0  0  0  0  0  0  0  0  0
   59.0400   -0.4023   94.4188 H   0  0  0  0  0  0  0  0  0  0  0  0
   57.7830    0.8895   96.0981 H   0  0  0  0  0  0  0  0  0  0  0  0
   57.5259    3.4691   95.6736 H   0  0  0  0  0  0  0  0  0  0  0  0
   59.9712    2.3718   91.1249 H   0  0  0  0  0  0  0  0  0  0  0  0
   65.9095   -0.0245   97.8368 H   0  0  0  0  0  0  0  0  0  0  0  0
   65.5706   -0.8896   96.2995 H   0  0  0  0  0  0  0  0  0  0  0  0
   65.7758    0.8949   96.2995 H   0  0  0  0  0  0  0  0  0  0  0  0
   63.4507   -1.7275   97.1168 H   0  0  0  0  0  0  0  0  0  0  0  0
   64.5124   -1.4836   94.9750 H   0  0  0  0  0  0  0  0  0  0  0  0
   62.7494   -1.8499   94.7340 H   0  0  0  0  0  0  0  0  0  0  0  0
   64.0714    0.0829   93.4098 H   0  0  0  0  0  0  0  0  0  0  0  0
   64.6902    1.6849   94.8023 H   0  0  0  0  0  0  0  0  0  0  0  0
   62.9732    2.2097   94.5613 H   0  0  0  0  0  0  0  0  0  0  0  0
   63.7828    2.1674   96.9612 H   0  0  0  0  0  0  0  0  0  0  0  0
   61.5363    1.9891   95.9461 H   0  0  0  0  0  0  0  0  0  0  0  0
   61.3009   -1.2727   96.0992 H   0  0  0  0  0  0  0  0  0  0  0  0
   64.4505   -0.6064   98.9710 H   0  0  0  0  0  0  0  0  0  0  0  0
   64.4600    1.1874   98.8765 H   0  0  0  0  0  0  0  0  0  0  0  0
   62.9003    0.2961   98.8765 H   0  0  0  0  0  0  0  0  0  0  0  0
  1  2  2  0
  3  5  2  0
  5  6  1  0
  6  7  2  0
  4  8  2  0
  8  9  1  0
  9 10  2  0
  1 12  1  0
  3 14  1  0
  7 14  1  0
  4 15  1  0
 10 15  1  0
 17 18  1  0
 12 19  1  0
 18 19  1  0
 19 20  1  0
 20 21  1  0
 11 22  1  0
 21 22  1  0
 11 23  1  0
 17 23  1  0
 22 23  1  0
  1 25  1  0
  3 25  1  0
  4 25  1  0
 13 25  1  0
 16 26  1  0
 17 26  1  0
 21 26  1  0
 24 26  1  0
  5 27  1  0
  6 28  1  0
  7 29  1  0
  8 30  1  0
  9 31  1  0
 10 32  1  0
 13 33  1  0
 16 34  1  0
 16 35  1  0
 16 36  1  0
 17 37  1  1
 18 38  1  0
 18 39  1  0
 19 40  1  6
 20 41  1  0
 20 42  1  0
 21 43  1  1
 22 44  1  6
 23 45  1  6
 24 46  1  0
 24 47  1  0
 24 48  1  0
M  CHG  1  26   1
M  END
$$$$
