PDB_DB01336_95
     RDKit          3D

 96102  0  0  0  0  0  0  0  0999 V2000
  -37.0890  -28.2660   68.2010 N   0  0  0  0  0  0  0  0  0  0  0  0
  -36.6300  -29.6750   67.9530 C   0  0  0  0  0  0  0  0  0  0  0  0
  -35.1230  -29.8450   68.2330 C   0  0  0  0  0  0  0  0  0  0  0  0
  -34.6530  -29.0360   69.4220 C   0  0  0  0  0  0  0  0  0  0  0  0
  -35.5200  -28.1750   70.1140 C   0  0  0  0  0  0  0  0  0  0  0  0
  -36.9500  -27.9870   69.6470 C   0  0  2  0  0  0  0  0  0  0  0  0
  -33.3300  -29.2070   69.8690 C   0  0  0  0  0  0  0  0  0  0  0  0
  -32.8370  -28.5170   70.9910 C   0  0  0  0  0  0  0  0  0  0  0  0
  -33.6710  -27.6560   71.6810 C   0  0  0  0  0  0  0  0  0  0  0  0
  -34.9980  -27.4690   71.2520 C   0  0  0  0  0  0  0  0  0  0  0  0
  -33.1530  -27.0020   72.7500 O   0  0  0  0  0  0  0  0  0  0  0  0
  -33.5930  -25.6960   72.8520 C   0  0  0  0  0  0  0  0  0  0  0  0
  -33.0290  -24.7200   72.0230 C   0  0  0  0  0  0  0  0  0  0  0  0
  -33.5390  -23.4160   72.0840 C   0  0  0  0  0  0  0  0  0  0  0  0
  -34.5650  -23.1200   72.9990 C   0  0  0  0  0  0  0  0  0  0  0  0
  -35.1290  -24.0890   73.8430 C   0  0  0  0  0  0  0  0  0  0  0  0
  -34.6630  -25.4080   73.7260 C   0  0  0  0  0  0  0  0  0  0  0  0
  -36.3080  -23.7490   74.7580 C   0  0  0  0  0  0  0  0  0  0  0  0
  -36.1140  -24.1710   76.2410 C   0  0  1  0  0  0  0  0  0  0  0  0
  -35.4350  -23.2020   77.0940 N   0  0  0  0  0  0  0  0  0  0  0  0
  -36.3060  -22.0190   77.3150 C   0  0  0  0  0  0  0  0  0  0  0  0
  -37.6560  -22.3150   78.0080 C   0  0  0  0  0  0  0  0  0  0  0  0
  -38.2240  -23.6730   77.6010 C   0  0  0  0  0  0  0  0  0  0  0  0
  -37.4790  -24.5530   76.8030 C   0  0  0  0  0  0  0  0  0  0  0  0
  -39.4940  -24.0460   78.1050 C   0  0  0  0  0  0  0  0  0  0  0  0
  -40.0210  -25.2990   77.7370 C   0  0  0  0  0  0  0  0  0  0  0  0
  -39.2950  -26.1720   76.9740 C   0  0  0  0  0  0  0  0  0  0  0  0
  -38.0550  -25.8180   76.4930 C   0  0  0  0  0  0  0  0  0  0  0  0
  -37.3980  -26.7840   75.7850 O   0  0  0  0  0  0  0  0  0  0  0  0
  -37.6120  -27.2160   74.5020 C   0  0  0  0  0  0  0  0  0  0  0  0
  -37.1240  -28.5040   74.1650 C   0  0  0  0  0  0  0  0  0  0  0  0
  -37.2760  -28.9900   72.8800 C   0  0  0  0  0  0  0  0  0  0  0  0
  -37.9300  -28.2050   71.9140 C   0  0  0  0  0  0  0  0  0  0  0  0
  -38.4190  -26.9080   72.2490 C   0  0  0  0  0  0  0  0  0  0  0  0
  -38.2790  -26.4470   73.5770 C   0  0  0  0  0  0  0  0  0  0  0  0
  -37.9950  -28.7420   70.4930 C   0  0  0  0  0  0  0  0  0  0  0  0
  -31.5590  -28.6830   71.4360 O   0  0  0  0  0  0  0  0  0  0  0  0
  -30.5610  -29.3070   70.5750 C   0  0  0  0  0  0  0  0  0  0  0  0
  -32.0120  -25.0900   71.1720 O   0  0  0  0  0  0  0  0  0  0  0  0
  -41.2150  -25.7480   78.2320 O   0  0  0  0  0  0  0  0  0  0  0  0
  -41.6740  -25.1630   79.4920 C   0  0  0  0  0  0  0  0  0  0  0  0
  -39.8300  -27.3840   76.6450 O   0  0  0  0  0  0  0  0  0  0  0  0
  -36.3230  -27.2680   67.3450 C   0  0  0  0  0  0  0  0  0  0  0  0
  -35.1350  -23.8480   78.4060 C   0  0  0  0  0  0  0  0  0  0  0  0
  -34.1460  -22.6260   76.5850 C   0  0  0  0  0  0  0  0  0  0  0  0
  -39.3710  -28.5050   77.3780 C   0  0  0  0  0  0  0  0  0  0  0  0
  -38.5350  -28.0970   67.8030 C   0  0  0  0  0  0  0  0  0  0  0  0
  -31.3270  -24.1970   70.2690 C   0  0  0  0  0  0  0  0  0  0  0  0
  -37.1930  -30.3537   68.6107 H   0  0  0  0  0  0  0  0  0  0  0  0
  -36.8093  -29.9112   66.8937 H   0  0  0  0  0  0  0  0  0  0  0  0
  -34.9196  -30.9082   68.4287 H   0  0  0  0  0  0  0  0  0  0  0  0
  -34.5787  -29.4815   67.3489 H   0  0  0  0  0  0  0  0  0  0  0  0
  -37.1776  -26.9228   69.8073 H   0  0  0  0  0  0  0  0  0  0  0  0
  -32.6654  -29.8967   69.3281 H   0  0  0  0  0  0  0  0  0  0  0  0
  -35.6481  -26.7694   71.7978 H   0  0  0  0  0  0  0  0  0  0  0  0
  -33.1408  -22.6321   71.4229 H   0  0  0  0  0  0  0  0  0  0  0  0
  -34.9405  -22.0876   73.0554 H   0  0  0  0  0  0  0  0  0  0  0  0
  -35.1295  -26.2131   74.3126 H   0  0  0  0  0  0  0  0  0  0  0  0
  -36.4638  -22.6605   74.7279 H   0  0  0  0  0  0  0  0  0  0  0  0
  -37.1712  -24.3171   74.3809 H   0  0  0  0  0  0  0  0  0  0  0  0
  -35.4221  -25.0261   76.2422 H   0  0  0  0  0  0  0  0  0  0  0  0
  -35.7533  -21.3015   77.9392 H   0  0  0  0  0  0  0  0  0  0  0  0
  -36.5545  -21.6323   76.3157 H   0  0  0  0  0  0  0  0  0  0  0  0
  -37.5052  -22.3055   79.0976 H   0  0  0  0  0  0  0  0  0  0  0  0
  -38.3733  -21.5407   77.6981 H   0  0  0  0  0  0  0  0  0  0  0  0
  -40.0559  -23.3723   78.7687 H   0  0  0  0  0  0  0  0  0  0  0  0
  -36.6232  -29.1179   74.9281 H   0  0  0  0  0  0  0  0  0  0  0  0
  -36.8878  -29.9845   72.6148 H   0  0  0  0  0  0  0  0  0  0  0  0
  -38.8975  -26.2767   71.4857 H   0  0  0  0  0  0  0  0  0  0  0  0
  -38.7025  -25.4752   73.8707 H   0  0  0  0  0  0  0  0  0  0  0  0
  -39.0002  -28.5773   70.0778 H   0  0  0  0  0  0  0  0  0  0  0  0
  -37.7846  -29.8217   70.4837 H   0  0  0  0  0  0  0  0  0  0  0  0
  -29.7909  -29.7885   71.1956 H   0  0  0  0  0  0  0  0  0  0  0  0
  -31.0458  -30.0631   69.9400 H   0  0  0  0  0  0  0  0  0  0  0  0
  -30.0935  -28.5400   69.9400 H   0  0  0  0  0  0  0  0  0  0  0  0
  -41.2377  -25.7191   80.3349 H   0  0  0  0  0  0  0  0  0  0  0  0
  -41.3581  -24.1106   79.5442 H   0  0  0  0  0  0  0  0  0  0  0  0
  -42.7713  -25.2195   79.5442 H   0  0  0  0  0  0  0  0  0  0  0  0
  -35.7832  -26.5647   67.9962 H   0  0  0  0  0  0  0  0  0  0  0  0
  -35.6036  -27.8058   66.7100 H   0  0  0  0  0  0  0  0  0  0  0  0
  -37.0285  -26.7121   66.7100 H   0  0  0  0  0  0  0  0  0  0  0  0
  -35.4452  -23.1800   79.2230 H   0  0  0  0  0  0  0  0  0  0  0  0
  -35.6840  -24.7983   78.4808 H   0  0  0  0  0  0  0  0  0  0  0  0
  -34.0548  -24.0417   78.4808 H   0  0  0  0  0  0  0  0  0  0  0  0
  -33.5100  -22.3418   77.4363 H   0  0  0  0  0  0  0  0  0  0  0  0
  -33.6252  -23.3770   75.9728 H   0  0  0  0  0  0  0  0  0  0  0  0
  -34.3581  -21.7370   75.9728 H   0  0  0  0  0  0  0  0  0  0  0  0
  -39.4556  -28.2984   78.4551 H   0  0  0  0  0  0  0  0  0  0  0  0
  -39.9816  -29.3841   77.1242 H   0  0  0  0  0  0  0  0  0  0  0  0
  -38.3192  -28.7034   77.1242 H   0  0  0  0  0  0  0  0  0  0  0  0
  -39.1579  -28.0242   68.7067 H   0  0  0  0  0  0  0  0  0  0  0  0
  -38.6462  -27.1797   67.2061 H   0  0  0  0  0  0  0  0  0  0  0  0
  -38.8547  -28.9639   67.2061 H   0  0  0  0  0  0  0  0  0  0  0  0
  -30.7579  -23.4551   70.8485 H   0  0  0  0  0  0  0  0  0  0  0  0
  -30.6378  -24.7742   69.6351 H   0  0  0  0  0  0  0  0  0  0  0  0
  -32.0631  -23.6809   69.6351 H   0  0  0  0  0  0  0  0  0  0  0  0
  1  2  1  0
  2  3  1  0
  3  4  1  0
  4  5  2  0
  1  6  1  0
  5  6  1  0
  4  7  1  0
  7  8  2  0
  8  9  1  0
  5 10  1  0
  9 10  2  0
  9 11  1  0
 11 12  1  0
 12 13  2  0
 13 14  1  0
 14 15  2  0
 15 16  1  0
 12 17  1  0
 16 17  2  0
 16 18  1  0
 18 19  1  0
 19 20  1  0
 20 21  1  0
 21 22  1  0
 22 23  1  0
 19 24  1  0
 23 24  2  0
 23 25  1  0
 25 26  2  0
 26 27  1  0
 24 28  1  0
 27 28  2  0
 28 29  1  0
 29 30  1  0
 30 31  2  0
 31 32  1  0
 32 33  2  0
 33 34  1  0
 30 35  1  0
 34 35  2  0
  6 36  1  0
 33 36  1  0
  8 37  1  0
 37 38  1  0
 13 39  1  0
 26 40  1  0
 40 41  1  0
 27 42  1  0
  1 43  1  0
 20 44  1  0
 20 45  1  0
 42 46  1  0
  1 47  1  0
 39 48  1  0
  2 49  1  0
  2 50  1  0
  3 51  1  0
  3 52  1  0
  6 53  1  6
  7 54  1  0
 10 55  1  0
 14 56  1  0
 15 57  1  0
 17 58  1  0
 18 59  1  0
 18 60  1  0
 19 61  1  6
 21 62  1  0
 21 63  1  0
 22 64  1  0
 22 65  1  0
 25 66  1  0
 31 67  1  0
 32 68  1  0
 34 69  1  0
 35 70  1  0
 36 71  1  0
 36 72  1  0
 38 73  1  0
 38 74  1  0
 38 75  1  0
 41 76  1  0
 41 77  1  0
 41 78  1  0
 43 79  1  0
 43 80  1  0
 43 81  1  0
 44 82  1  0
 44 83  1  0
 44 84  1  0
 45 85  1  0
 45 86  1  0
 45 87  1  0
 46 88  1  0
 46 89  1  0
 46 90  1  0
 47 91  1  0
 47 92  1  0
 47 93  1  0
 48 94  1  0
 48 95  1  0
 48 96  1  0
M  CHG  2   1   1  20   1
M  END
$$$$
