PDB_DB00523_85
     RDKit          3D

 50 50  0  0  0  0  0  0  0  0999 V2000
  -12.2410   18.8060  -33.1750 C   0  0  0  0  0  0  0  0  0  0  0  0
  -11.7190   20.3130  -33.4830 C   0  0  0  0  0  0  0  0  0  0  0  0
  -11.9380   21.4310  -32.3530 C   0  0  0  0  0  0  0  0  0  0  0  0
  -13.0680   21.2000  -31.5670 C   0  0  0  0  0  0  0  0  0  0  0  0
  -13.3200   19.9380  -30.9940 C   0  0  0  0  0  0  0  0  0  0  0  0
  -12.9640   18.6450  -31.6730 C   0  0  0  0  0  0  0  0  0  0  0  0
  -13.1810   17.3290  -31.1500 C   0  0  0  0  0  0  0  0  0  0  0  0
  -12.8100   16.6470  -30.0010 C   0  0  0  0  0  0  0  0  0  0  0  0
  -13.1480   15.3940  -29.4850 C   0  0  0  0  0  0  0  0  0  0  0  0
  -12.6320   14.9670  -28.2620 C   0  0  0  0  0  0  0  0  0  0  0  0
  -11.7720   15.7570  -27.5090 C   0  0  0  0  0  0  0  0  0  0  0  0
  -11.2630   15.3530  -26.3050 C   0  0  0  0  0  0  0  0  0  0  0  0
  -10.3780   16.1400  -25.4650 C   0  0  0  0  0  0  0  0  0  0  0  0
  -10.2840   15.6290  -24.1580 C   0  0  0  0  0  0  0  0  0  0  0  0
   -9.4880   16.1360  -22.9420 C   0  0  0  0  0  0  0  0  0  0  0  0
  -10.8610   18.0080  -33.1100 C   0  0  0  0  0  0  0  0  0  0  0  0
  -12.9850   18.1950  -34.4140 C   0  0  0  0  0  0  0  0  0  0  0  0
  -13.9870   20.1040  -29.6250 C   0  0  0  0  0  0  0  0  0  0  0  0
  -14.1330   14.3570  -30.1850 C   0  0  0  0  0  0  0  0  0  0  0  0
   -9.6240   17.4160  -25.9260 C   0  0  0  0  0  0  0  0  0  0  0  0
   -9.9300   16.0490  -21.8210 O   0  0  0  0  0  0  0  0  0  0  0  0
   -8.3350   16.6600  -23.1750 O   0  0  0  0  0  0  0  0  0  0  0  0
  -10.6381   20.2516  -33.6774 H   0  0  0  0  0  0  0  0  0  0  0  0
  -12.3372   20.6509  -34.3277 H   0  0  0  0  0  0  0  0  0  0  0  0
  -11.0536   21.4460  -31.6991 H   0  0  0  0  0  0  0  0  0  0  0  0
  -12.0862   22.3924  -32.8666 H   0  0  0  0  0  0  0  0  0  0  0  0
  -13.0174   21.9152  -30.7328 H   0  0  0  0  0  0  0  0  0  0  0  0
  -13.8867   21.2970  -32.2952 H   0  0  0  0  0  0  0  0  0  0  0  0
  -13.7901   16.7086  -31.8238 H   0  0  0  0  0  0  0  0  0  0  0  0
  -12.1065   17.2067  -29.3671 H   0  0  0  0  0  0  0  0  0  0  0  0
  -12.9144   13.9743  -27.8816 H   0  0  0  0  0  0  0  0  0  0  0  0
  -11.4891   16.7469  -27.8964 H   0  0  0  0  0  0  0  0  0  0  0  0
  -11.5466   14.3530  -25.9450 H   0  0  0  0  0  0  0  0  0  0  0  0
  -10.8752   14.7196  -23.9751 H   0  0  0  0  0  0  0  0  0  0  0  0
  -10.5804   17.8458  -32.0588 H   0  0  0  0  0  0  0  0  0  0  0  0
  -10.9752   17.0365  -33.6132 H   0  0  0  0  0  0  0  0  0  0  0  0
  -10.0760   18.5915  -33.6132 H   0  0  0  0  0  0  0  0  0  0  0  0
  -13.7917   17.5325  -34.0672 H   0  0  0  0  0  0  0  0  0  0  0  0
  -13.4124   19.0062  -35.0217 H   0  0  0  0  0  0  0  0  0  0  0  0
  -12.2724   17.6180  -35.0217 H   0  0  0  0  0  0  0  0  0  0  0  0
  -13.2473   19.9199  -28.8320 H   0  0  0  0  0  0  0  0  0  0  0  0
  -14.3794   21.1272  -29.5300 H   0  0  0  0  0  0  0  0  0  0  0  0
  -14.8133   19.3841  -29.5300 H   0  0  0  0  0  0  0  0  0  0  0  0
  -14.6738   13.7877  -29.4147 H   0  0  0  0  0  0  0  0  0  0  0  0
  -14.8540   14.9020  -30.8119 H   0  0  0  0  0  0  0  0  0  0  0  0
  -13.5516   13.6649  -30.8119 H   0  0  0  0  0  0  0  0  0  0  0  0
   -9.2892   17.9826  -25.0446 H   0  0  0  0  0  0  0  0  0  0  0  0
   -8.7510   17.1279  -26.5300 H   0  0  0  0  0  0  0  0  0  0  0  0
  -10.2975   18.0418  -26.5300 H   0  0  0  0  0  0  0  0  0  0  0  0
   -9.4010   16.3816  -21.0531 H   0  0  0  0  0  0  0  0  0  0  0  0
  1  2  1  0
  2  3  1  0
  3  4  1  0
  4  5  1  0
  1  6  1  0
  5  6  2  0
  6  7  1  0
  7  8  2  0
  8  9  1  0
  9 10  2  0
 10 11  1  0
 11 12  2  0
 12 13  1  0
 13 14  2  0
 14 15  1  0
  1 16  1  0
  1 17  1  0
  5 18  1  0
  9 19  1  0
 13 20  1  0
 15 21  1  0
 15 22  2  0
  2 23  1  0
  2 24  1  0
  3 25  1  0
  3 26  1  0
  4 27  1  0
  4 28  1  0
  7 29  1  0
  8 30  1  0
 10 31  1  0
 11 32  1  0
 12 33  1  0
 14 34  1  0
 16 35  1  0
 16 36  1  0
 16 37  1  0
 17 38  1  0
 17 39  1  0
 17 40  1  0
 18 41  1  0
 18 42  1  0
 18 43  1  0
 19 44  1  0
 19 45  1  0
 19 46  1  0
 20 47  1  0
 20 48  1  0
 20 49  1  0
 21 50  1  0
M  END
$$$$
