PDB_DB00642_93
     RDKit          3D

 52 54  0  0  0  0  0  0  0  0999 V2000
   -5.9610  -45.1880  -56.0130 C   0  0  0  0  0  0  0  0  0  0  0  0
   -7.3760  -45.1990  -55.9010 C   0  0  0  0  0  0  0  0  0  0  0  0
   -8.1090  -43.9850  -56.0120 C   0  0  0  0  0  0  0  0  0  0  0  0
   -7.4430  -42.7230  -56.2440 C   0  0  0  0  0  0  0  0  0  0  0  0
   -6.0250  -42.7510  -56.3480 C   0  0  0  0  0  0  0  0  0  0  0  0
   -5.2950  -43.9530  -56.2400 C   0  0  0  0  0  0  0  0  0  0  0  0
   -5.1620  -46.5080  -55.9050 C   0  0  0  0  0  0  0  0  0  0  0  0
   -4.4920  -46.8040  -54.5320 C   0  0  0  0  0  0  0  0  0  0  0  0
   -3.1050  -46.1750  -54.4010 C   0  0  0  0  0  0  0  0  0  0  0  0
   -2.0040  -46.4320  -55.2210 C   0  0  0  0  0  0  0  0  0  0  0  0
   -0.8980  -45.6770  -54.8200 N   0  0  0  0  0  0  0  0  0  0  0  0
   -1.3010  -44.9380  -53.7350 C   0  0  0  0  0  0  0  0  0  0  0  0
   -2.6630  -45.2540  -53.4820 C   0  0  0  0  0  0  0  0  0  0  0  0
   -3.3760  -44.5490  -52.2880 C   0  0  0  0  0  0  0  0  0  0  0  0
   -4.5340  -44.7370  -51.9680 O   0  0  0  0  0  0  0  0  0  0  0  0
   -2.6210  -43.6670  -51.5700 N   0  0  0  0  0  0  0  0  0  0  0  0
   -1.2380  -43.3880  -51.8840 C   0  0  0  0  0  0  0  0  0  0  0  0
   -0.6350  -43.9740  -52.8770 N   0  0  0  0  0  0  0  0  0  0  0  0
   -0.5530  -42.4910  -51.1210 N   0  0  0  0  0  0  0  0  0  0  0  0
   -8.1400  -41.3670  -56.3900 C   0  0  0  0  0  0  0  0  0  0  0  0
   -7.4780  -40.3440  -56.5930 O   0  0  0  0  0  0  0  0  0  0  0  0
   -9.4820  -41.3420  -56.3050 N   0  0  0  0  0  0  0  0  0  0  0  0
  -10.3620  -40.1440  -56.4450 C   0  0  1  0  0  0  0  0  0  0  0  0
  -11.0710  -40.0840  -57.8340 C   0  0  0  0  0  0  0  0  0  0  0  0
  -10.1560  -39.8370  -59.0770 C   0  0  0  0  0  0  0  0  0  0  0  0
  -10.8330  -39.7890  -60.4540 C   0  0  0  0  0  0  0  0  0  0  0  0
  -11.9350  -39.2030  -60.5830 O   0  0  0  0  0  0  0  0  0  0  0  0
  -10.2640  -40.3410  -61.4240 O   0  0  0  0  0  0  0  0  0  0  0  0
  -11.3640  -40.0970  -55.2250 C   0  0  0  0  0  0  0  0  0  0  0  0
  -11.6160  -39.0200  -54.6040 O   0  0  0  0  0  0  0  0  0  0  0  0
  -11.9290  -41.1810  -54.8930 O   0  0  0  0  0  0  0  0  0  0  0  0
   -7.9062  -46.1472  -55.7282 H   0  0  0  0  0  0  0  0  0  0  0  0
   -9.2049  -44.0069  -55.9194 H   0  0  0  0  0  0  0  0  0  0  0  0
   -5.4825  -41.8092  -56.5174 H   0  0  0  0  0  0  0  0  0  0  0  0
   -4.1990  -43.9345  -56.3324 H   0  0  0  0  0  0  0  0  0  0  0  0
   -5.8525  -47.3355  -56.1252 H   0  0  0  0  0  0  0  0  0  0  0  0
   -4.3309  -46.4042  -56.6180 H   0  0  0  0  0  0  0  0  0  0  0  0
   -5.1354  -46.4052  -53.7339 H   0  0  0  0  0  0  0  0  0  0  0  0
   -4.3698  -47.8942  -54.4517 H   0  0  0  0  0  0  0  0  0  0  0  0
   -2.0068  -47.1338  -56.0680 H   0  0  0  0  0  0  0  0  0  0  0  0
    0.0363  -45.6753  -55.2535 H   0  0  0  0  0  0  0  0  0  0  0  0
    0.3522  -43.7455  -53.0615 H   0  0  0  0  0  0  0  0  0  0  0  0
    0.4331  -42.2819  -51.3326 H   0  0  0  0  0  0  0  0  0  0  0  0
   -1.0212  -42.0219  -50.3326 H   0  0  0  0  0  0  0  0  0  0  0  0
   -9.9506  -42.2414  -56.1249 H   0  0  0  0  0  0  0  0  0  0  0  0
   -9.7436  -39.2347  -56.4155 H   0  0  0  0  0  0  0  0  0  0  0  0
  -11.5888  -41.0425  -57.9860 H   0  0  0  0  0  0  0  0  0  0  0  0
  -11.7341  -39.2078  -57.7834 H   0  0  0  0  0  0  0  0  0  0  0  0
   -9.6470  -38.8737  -58.9258 H   0  0  0  0  0  0  0  0  0  0  0  0
   -9.4951  -40.7153  -59.1189 H   0  0  0  0  0  0  0  0  0  0  0  0
  -12.3767  -39.1686  -61.4683 H   0  0  0  0  0  0  0  0  0  0  0  0
  -12.2492  -39.0240  -53.8430 H   0  0  0  0  0  0  0  0  0  0  0  0
  1  2  2  0
  2  3  1  0
  3  4  2  0
  4  5  1  0
  1  6  1  0
  5  6  2  0
  1  7  1  0
  7  8  1  0
  8  9  1  0
  9 10  2  0
 10 11  1  0
 11 12  1  0
  9 13  1  0
 12 13  2  0
 13 14  1  0
 14 15  2  0
 14 16  1  0
 16 17  2  0
 12 18  1  0
 17 18  1  0
 17 19  1  0
  4 20  1  0
 20 21  2  0
 20 22  1  0
 22 23  1  0
 23 24  1  0
 24 25  1  0
 25 26  1  0
 26 27  1  0
 26 28  2  0
 23 29  1  0
 29 30  1  0
 29 31  2  0
  2 32  1  0
  3 33  1  0
  5 34  1  0
  6 35  1  0
  7 36  1  0
  7 37  1  0
  8 38  1  0
  8 39  1  0
 10 40  1  0
 11 41  1  0
 18 42  1  0
 19 43  1  0
 19 44  1  0
 22 45  1  0
 23 46  1  1
 24 47  1  0
 24 48  1  0
 25 49  1  0
 25 50  1  0
 27 51  1  0
 30 52  1  0
M  END
$$$$
