PDB_DB00482_96
     RDKit          3D

 40 42  0  0  0  0  0  0  0  0999 V2000
   82.4900  -14.1680   -8.8580 S   0  0  0  0  0  0  0  0  0  0  0  0
   80.7220  -14.0990   -8.6690 C   0  0  0  0  0  0  0  0  0  0  0  0
   80.1400  -14.7160   -7.5910 C   0  0  0  0  0  0  0  0  0  0  0  0
   78.7700  -14.6550   -7.4630 C   0  0  0  0  0  0  0  0  0  0  0  0
   78.0150  -13.9900   -8.4050 C   0  0  0  0  0  0  0  0  0  0  0  0
   78.6060  -13.3680   -9.4810 C   0  0  0  0  0  0  0  0  0  0  0  0
   79.9760  -13.4250   -9.6120 C   0  0  0  0  0  0  0  0  0  0  0  0
   76.6160  -13.9130   -8.3090 N   0  0  0  0  0  0  0  0  0  0  0  0
   75.7170  -14.7930   -7.7580 C   0  0  0  0  0  0  0  0  0  0  0  0
   75.9070  -16.0990   -7.1770 C   0  0  0  0  0  0  0  0  0  0  0  0
   76.7710  -17.0170   -7.7240 C   0  0  0  0  0  0  0  0  0  0  0  0
   76.8380  -18.3000   -7.2260 C   0  0  0  0  0  0  0  0  0  0  0  0
   76.0360  -18.6890   -6.1710 C   0  0  0  0  0  0  0  0  0  0  0  0
   76.1000  -20.0840   -5.6330 C   0  0  0  0  0  0  0  0  0  0  0  0
   75.1860  -17.7590   -5.6200 C   0  0  0  0  0  0  0  0  0  0  0  0
   75.1140  -16.4870   -6.1320 C   0  0  0  0  0  0  0  0  0  0  0  0
   74.4870  -14.2230   -7.9590 C   0  0  0  0  0  0  0  0  0  0  0  0
   74.7240  -13.0050   -8.6170 C   0  0  0  0  0  0  0  0  0  0  0  0
   73.7250  -12.0180   -9.0660 C   0  0  0  0  0  0  0  0  0  0  0  0
   72.7640  -11.7390   -8.1570 F   0  0  0  0  0  0  0  0  0  0  0  0
   74.2680  -10.8120   -9.3170 F   0  0  0  0  0  0  0  0  0  0  0  0
   73.0870  -12.4490  -10.1890 F   0  0  0  0  0  0  0  0  0  0  0  0
   76.0260  -12.8300   -8.8370 N   0  0  0  0  0  0  0  0  0  0  0  0
   82.9420  -12.7560   -8.0030 N   0  0  0  0  0  0  0  0  0  0  0  0
   82.7160  -13.9410  -10.2770 O   0  0  0  0  0  0  0  0  0  0  0  0
   82.9810  -15.3250   -8.1170 O   0  0  0  0  0  0  0  0  0  0  0  0
   80.7524  -15.2465   -6.8470 H   0  0  0  0  0  0  0  0  0  0  0  0
   78.2771  -15.1383   -6.6066 H   0  0  0  0  0  0  0  0  0  0  0  0
   77.9948  -12.8344  -10.2237 H   0  0  0  0  0  0  0  0  0  0  0  0
   80.4715  -12.9358  -10.4636 H   0  0  0  0  0  0  0  0  0  0  0  0
   77.4148  -16.7250   -8.5668 H   0  0  0  0  0  0  0  0  0  0  0  0
   77.5373  -19.0218   -7.6732 H   0  0  0  0  0  0  0  0  0  0  0  0
   76.0986  -20.0533   -4.5334 H   0  0  0  0  0  0  0  0  0  0  0  0
   75.2270  -20.6532   -5.9851 H   0  0  0  0  0  0  0  0  0  0  0  0
   77.0214  -20.5709   -5.9851 H   0  0  0  0  0  0  0  0  0  0  0  0
   74.5577  -18.0368   -4.7609 H   0  0  0  0  0  0  0  0  0  0  0  0
   74.4064  -15.7675   -5.6943 H   0  0  0  0  0  0  0  0  0  0  0  0
   73.5110  -14.6361   -7.6644 H   0  0  0  0  0  0  0  0  0  0  0  0
   82.8848  -12.9348   -6.9903 H   0  0  0  0  0  0  0  0  0  0  0  0
   83.9076  -12.4981   -8.2521 H   0  0  0  0  0  0  0  0  0  0  0  0
  1  2  1  0
  2  3  2  0
  3  4  1  0
  4  5  2  0
  5  6  1  0
  2  7  1  0
  6  7  2  0
  5  8  1  0
  8  9  1  0
  9 10  1  0
 10 11  2  0
 11 12  1  0
 12 13  2  0
 13 14  1  0
 13 15  1  0
 10 16  1  0
 15 16  2  0
  9 17  2  0
 17 18  1  0
 18 19  1  0
 19 20  1  0
 19 21  1  0
 19 22  1  0
  8 23  1  0
 18 23  2  0
  1 24  1  0
  1 25  2  0
  1 26  2  0
  3 27  1  0
  4 28  1  0
  6 29  1  0
  7 30  1  0
 11 31  1  0
 12 32  1  0
 14 33  1  0
 14 34  1  0
 14 35  1  0
 15 36  1  0
 16 37  1  0
 17 38  1  0
 24 39  1  0
 24 40  1  0
M  END
$$$$
