PDB_DB00619_92
     RDKit          3D

 68 72  0  0  0  0  0  0  0  0999 V2000
   63.5480   48.1030   18.6180 C   0  0  0  0  0  0  0  0  0  0  0  0
   63.0290   48.8330   17.5400 C   0  0  0  0  0  0  0  0  0  0  0  0
   63.3200   50.2310   17.4320 C   0  0  0  0  0  0  0  0  0  0  0  0
   64.1560   50.8350   18.3690 C   0  0  0  0  0  0  0  0  0  0  0  0
   64.6750   50.0840   19.4270 N   0  0  0  0  0  0  0  0  0  0  0  0
   64.3670   48.7670   19.5100 C   0  0  0  0  0  0  0  0  0  0  0  0
   62.8240   51.1030   16.2970 C   0  0  0  0  0  0  0  0  0  0  0  0
   62.2280   50.5780   15.2210 C   0  0  0  0  0  0  0  0  0  0  0  0
   61.8700   51.4970   14.1990 C   0  0  0  0  0  0  0  0  0  0  0  0
   62.1290   52.8060   14.3580 N   0  0  0  0  0  0  0  0  0  0  0  0
   62.7400   53.2580   15.4700 C   0  0  0  0  0  0  0  0  0  0  0  0
   63.1420   52.4270   16.4430 N   0  0  0  0  0  0  0  0  0  0  0  0
   63.0140   54.5840   15.7220 N   0  0  0  0  0  0  0  0  0  0  0  0
   62.8730   55.4970   14.6950 C   0  0  0  0  0  0  0  0  0  0  0  0
   63.8370   55.7240   13.6800 C   0  0  0  0  0  0  0  0  0  0  0  0
   63.5250   56.7300   12.7570 C   0  0  0  0  0  0  0  0  0  0  0  0
   62.3210   57.4780   12.8000 C   0  0  0  0  0  0  0  0  0  0  0  0
   61.3740   57.2630   13.7760 C   0  0  0  0  0  0  0  0  0  0  0  0
   61.6840   56.2770   14.7130 C   0  0  0  0  0  0  0  0  0  0  0  0
   60.1800   58.0950   13.7210 N   0  0  0  0  0  0  0  0  0  0  0  0
   59.3060   58.3230   14.7280 C   0  0  0  0  0  0  0  0  0  0  0  0
   58.3860   59.4950   14.7360 C   0  0  0  0  0  0  0  0  0  0  0  0
   57.5700   59.7550   15.8520 C   0  0  0  0  0  0  0  0  0  0  0  0
   56.6310   60.8190   15.8980 C   0  0  0  0  0  0  0  0  0  0  0  0
   56.5060   61.6630   14.7990 C   0  0  0  0  0  0  0  0  0  0  0  0
   57.2670   61.3960   13.6720 C   0  0  0  0  0  0  0  0  0  0  0  0
   58.1950   60.3220   13.6180 C   0  0  0  0  0  0  0  0  0  0  0  0
   55.5170   62.7980   14.8260 C   0  0  0  0  0  0  0  0  0  0  0  0
   54.6660   62.8220   13.6500 N   0  0  0  0  0  0  0  0  0  0  0  0
   53.9280   61.5600   13.5270 C   0  0  0  0  0  0  0  0  0  0  0  0
   53.0530   61.5960   12.2140 C   0  0  0  0  0  0  0  0  0  0  0  0
   52.2570   62.8380   12.2300 N   0  0  0  0  0  0  0  0  0  0  0  0
   51.6290   62.8120   10.9250 C   0  0  0  0  0  0  0  0  0  0  0  0
   53.0920   63.9910   12.3580 C   0  0  0  0  0  0  0  0  0  0  0  0
   53.7320   63.9520   13.7600 C   0  0  0  0  0  0  0  0  0  0  0  0
   59.2040   57.5660   15.6480 O   0  0  0  0  0  0  0  0  0  0  0  0
   65.1760   54.9810   13.5260 C   0  0  0  0  0  0  0  0  0  0  0  0
   63.3109   47.0369   18.7492 H   0  0  0  0  0  0  0  0  0  0  0  0
   62.4036   48.3364   16.7835 H   0  0  0  0  0  0  0  0  0  0  0  0
   64.4071   51.9019   18.2759 H   0  0  0  0  0  0  0  0  0  0  0  0
   64.7971   48.1895   20.3416 H   0  0  0  0  0  0  0  0  0  0  0  0
   62.0273   49.5001   15.1329 H   0  0  0  0  0  0  0  0  0  0  0  0
   61.3824   51.1385   13.2805 H   0  0  0  0  0  0  0  0  0  0  0  0
   63.3180   54.8889   16.6577 H   0  0  0  0  0  0  0  0  0  0  0  0
   64.2496   56.9508   11.9594 H   0  0  0  0  0  0  0  0  0  0  0  0
   62.1394   58.2480   12.0357 H   0  0  0  0  0  0  0  0  0  0  0  0
   60.9601   56.0903   15.5199 H   0  0  0  0  0  0  0  0  0  0  0  0
   59.9804   58.5576   12.8226 H   0  0  0  0  0  0  0  0  0  0  0  0
   57.6640   59.1020   16.7322 H   0  0  0  0  0  0  0  0  0  0  0  0
   56.0095   60.9743   16.7922 H   0  0  0  0  0  0  0  0  0  0  0  0
   57.1481   62.0389   12.7874 H   0  0  0  0  0  0  0  0  0  0  0  0
   58.7663   60.1376   12.6963 H   0  0  0  0  0  0  0  0  0  0  0  0
   54.8826   62.6920   15.7184 H   0  0  0  0  0  0  0  0  0  0  0  0
   56.0877   63.7382   14.8448 H   0  0  0  0  0  0  0  0  0  0  0  0
   54.6386   60.7221   13.4726 H   0  0  0  0  0  0  0  0  0  0  0  0
   53.2753   61.4269   14.4024 H   0  0  0  0  0  0  0  0  0  0  0  0
   53.7067   61.5830   11.3294 H   0  0  0  0  0  0  0  0  0  0  0  0
   52.3909   60.7186   12.1720 H   0  0  0  0  0  0  0  0  0  0  0  0
   50.5365   62.7668   11.0447 H   0  0  0  0  0  0  0  0  0  0  0  0
   51.8997   63.7221   10.3696 H   0  0  0  0  0  0  0  0  0  0  0  0
   51.9740   61.9274   10.3696 H   0  0  0  0  0  0  0  0  0  0  0  0
   53.8766   63.9730   11.5872 H   0  0  0  0  0  0  0  0  0  0  0  0
   52.5022   64.9105   12.2289 H   0  0  0  0  0  0  0  0  0  0  0  0
   52.9758   63.7689   14.5376 H   0  0  0  0  0  0  0  0  0  0  0  0
   54.2170   64.8964   14.0479 H   0  0  0  0  0  0  0  0  0  0  0  0
   65.5857   54.7536   14.5212 H   0  0  0  0  0  0  0  0  0  0  0  0
   65.0139   54.0438   12.9734 H   0  0  0  0  0  0  0  0  0  0  0  0
   65.8854   55.6145   12.9734 H   0  0  0  0  0  0  0  0  0  0  0  0
  1  2  2  0
  2  3  1  0
  3  4  2  0
  4  5  1  0
  1  6  1  0
  5  6  2  0
  3  7  1  0
  7  8  2  0
  8  9  1  0
  9 10  2  0
 10 11  1  0
  7 12  1  0
 11 12  2  0
 11 13  1  0
 13 14  1  0
 14 15  2  0
 15 16  1  0
 16 17  2  0
 17 18  1  0
 14 19  1  0
 18 19  2  0
 18 20  1  0
 20 21  1  0
 21 22  1  0
 22 23  2  0
 23 24  1  0
 24 25  2  0
 25 26  1  0
 22 27  1  0
 26 27  2  0
 25 28  1  0
 28 29  1  0
 29 30  1  0
 30 31  1  0
 31 32  1  0
 32 33  1  0
 32 34  1  0
 29 35  1  0
 34 35  1  0
 21 36  2  0
 15 37  1  0
  1 38  1  0
  2 39  1  0
  4 40  1  0
  6 41  1  0
  8 42  1  0
  9 43  1  0
 13 44  1  0
 16 45  1  0
 17 46  1  0
 19 47  1  0
 20 48  1  0
 23 49  1  0
 24 50  1  0
 26 51  1  0
 27 52  1  0
 28 53  1  0
 28 54  1  0
 30 55  1  0
 30 56  1  0
 31 57  1  0
 31 58  1  0
 33 59  1  0
 33 60  1  0
 33 61  1  0
 34 62  1  0
 34 63  1  0
 35 64  1  0
 35 65  1  0
 37 66  1  0
 37 67  1  0
 37 68  1  0
M  END
$$$$
