PDB_DB00293_88
     RDKit          3D

 54 56  0  0  0  0  0  0  0  0999 V2000
   12.1940   93.2870   45.9210 N   0  0  0  0  0  0  0  0  0  0  0  0
   10.9290   92.7020   46.2870 C   0  0  0  0  0  0  0  0  0  0  0  0
   10.0640   92.0670   45.2420 C   0  0  0  0  0  0  0  0  0  0  0  0
   10.4980   92.7300   47.6490 N   0  0  0  0  0  0  0  0  0  0  0  0
   11.2890   93.3300   48.6470 C   0  0  0  0  0  0  0  0  0  0  0  0
   10.8700   93.3340   49.7940 O   0  0  0  0  0  0  0  0  0  0  0  0
   12.6210   93.9530   48.2880 C   0  0  0  0  0  0  0  0  0  0  0  0
   13.4360   94.5720   49.2800 C   0  0  0  0  0  0  0  0  0  0  0  0
   14.6460   95.1280   48.8760 C   0  0  0  0  0  0  0  0  0  0  0  0
   15.0060   95.0460   47.5090 C   0  0  0  0  0  0  0  0  0  0  0  0
   14.2150   94.4450   46.5390 C   0  0  0  0  0  0  0  0  0  0  0  0
   13.0130   93.9030   46.9500 C   0  0  0  0  0  0  0  0  0  0  0  0
   15.5930   95.8250   49.8750 C   0  0  0  0  0  0  0  0  0  0  0  0
   16.4780   96.8420   49.2400 N   0  0  0  0  0  0  0  0  0  0  0  0
   15.5130   99.8110   46.6730 C   0  0  0  0  0  0  0  0  0  0  0  0
   16.8410   98.7860   47.1700 S   0  0  0  0  0  0  0  0  0  0  0  0
   15.9540   97.9260   48.3970 C   0  0  0  0  0  0  0  0  0  0  0  0
   14.6550   98.4360   48.3820 C   0  0  0  0  0  0  0  0  0  0  0  0
   14.4290   99.4560   47.4630 C   0  0  0  0  0  0  0  0  0  0  0  0
   15.5500  100.8880   45.5850 C   0  0  0  0  0  0  0  0  0  0  0  0
   16.5720  101.0370   44.9360 O   0  0  0  0  0  0  0  0  0  0  0  0
   14.3720  101.7230   45.3210 N   0  0  0  0  0  0  0  0  0  0  0  0
   14.3790  102.7770   44.3010 C   0  0  1  0  0  0  0  0  0  0  0  0
   13.3090  102.4990   43.2470 C   0  0  0  0  0  0  0  0  0  0  0  0
   13.8840  102.4440   41.8110 C   0  0  0  0  0  0  0  0  0  0  0  0
   14.3760  103.7940   41.3260 C   0  0  0  0  0  0  0  0  0  0  0  0
   15.5270  103.8860   40.8240 O   0  0  0  0  0  0  0  0  0  0  0  0
   13.6550  104.8360   41.4210 O   0  0  0  0  0  0  0  0  0  0  0  0
   14.1960  104.1050   44.9920 C   0  0  0  0  0  0  0  0  0  0  0  0
   13.4810  104.2150   46.0240 O   0  0  0  0  0  0  0  0  0  0  0  0
   14.7890  105.1410   44.5630 O   0  0  0  0  0  0  0  0  0  0  0  0
   17.9150   96.7430   49.3990 C   0  0  0  0  0  0  0  0  0  0  0  0
   12.5133   93.2685   44.9419 H   0  0  0  0  0  0  0  0  0  0  0  0
    9.2690   91.4834   45.7292 H   0  0  0  0  0  0  0  0  0  0  0  0
    9.6124   92.8496   44.6147 H   0  0  0  0  0  0  0  0  0  0  0  0
   10.6754   91.4016   44.6147 H   0  0  0  0  0  0  0  0  0  0  0  0
   13.1183   94.6091   50.3325 H   0  0  0  0  0  0  0  0  0  0  0  0
   15.9664   95.4830   47.1980 H   0  0  0  0  0  0  0  0  0  0  0  0
   14.5325   94.4023   45.4867 H   0  0  0  0  0  0  0  0  0  0  0  0
   14.9838   96.3238   50.6432 H   0  0  0  0  0  0  0  0  0  0  0  0
   16.2446   95.0480   50.3012 H   0  0  0  0  0  0  0  0  0  0  0  0
   13.8661   98.0585   49.0491 H   0  0  0  0  0  0  0  0  0  0  0  0
   13.4510   99.9506   47.3686 H   0  0  0  0  0  0  0  0  0  0  0  0
   13.5143  101.5639   45.8687 H   0  0  0  0  0  0  0  0  0  0  0  0
   15.3382  102.8003   43.7631 H   0  0  0  0  0  0  0  0  0  0  0  0
   12.8350  101.5325   43.4734 H   0  0  0  0  0  0  0  0  0  0  0  0
   12.5847  103.3261   43.2831 H   0  0  0  0  0  0  0  0  0  0  0  0
   14.7260  101.7363   41.7958 H   0  0  0  0  0  0  0  0  0  0  0  0
   13.0728  102.1251   41.1400 H   0  0  0  0  0  0  0  0  0  0  0  0
   15.8589  104.7621   40.5040 H   0  0  0  0  0  0  0  0  0  0  0  0
   13.3751  105.0969   46.4611 H   0  0  0  0  0  0  0  0  0  0  0  0
   18.1651   96.7258   50.4701 H   0  0  0  0  0  0  0  0  0  0  0  0
   18.2736   95.8180   48.9238 H   0  0  0  0  0  0  0  0  0  0  0  0
   18.3971   97.6101   48.9238 H   0  0  0  0  0  0  0  0  0  0  0  0
  1  2  1  0
  2  3  1  0
  2  4  2  0
  4  5  1  0
  5  6  2  0
  5  7  1  0
  7  8  1  0
  8  9  2  0
  9 10  1  0
 10 11  2  0
  1 12  1  0
  7 12  2  0
 11 12  1  0
  9 13  1  0
 13 14  1  0
 15 16  1  0
 14 17  1  0
 16 17  1  0
 17 18  2  0
 15 19  2  0
 18 19  1  0
 15 20  1  0
 20 21  2  0
 20 22  1  0
 22 23  1  0
 23 24  1  0
 24 25  1  0
 25 26  1  0
 26 27  1  0
 26 28  2  0
 23 29  1  0
 29 30  1  0
 29 31  2  0
 14 32  1  0
  1 33  1  0
  3 34  1  0
  3 35  1  0
  3 36  1  0
  8 37  1  0
 10 38  1  0
 11 39  1  0
 13 40  1  0
 13 41  1  0
 18 42  1  0
 19 43  1  0
 22 44  1  0
 23 45  1  6
 24 46  1  0
 24 47  1  0
 25 48  1  0
 25 49  1  0
 27 50  1  0
 30 51  1  0
 32 52  1  0
 32 53  1  0
 32 54  1  0
M  END
$$$$
