PDB_DB09053_97
     RDKit          3D

 57 61  0  0  0  0  0  0  0  0999 V2000
  -29.4130   -5.8770    2.3030 N   0  0  0  0  0  0  0  0  0  0  0  0
  -29.1850   -5.0730    3.4070 C   0  0  0  0  0  0  0  0  0  0  0  0
  -27.8780   -4.8830    3.8120 N   0  0  0  0  0  0  0  0  0  0  0  0
  -26.8850   -5.4070    3.0970 C   0  0  0  0  0  0  0  0  0  0  0  0
  -27.1190   -6.1490    2.0300 C   0  0  0  0  0  0  0  0  0  0  0  0
  -28.3770   -6.3910    1.6400 C   0  0  0  0  0  0  0  0  0  0  0  0
  -22.0600   -5.8990    8.6300 C   0  0  0  0  0  0  0  0  0  0  0  0
  -28.5860   -7.1620    0.5790 N   0  0  0  0  0  0  0  0  0  0  0  0
  -22.0280   -3.4290    7.6610 O   0  0  0  0  0  0  0  0  0  0  0  0
  -22.3040   -5.7160    7.1160 C   0  0  0  0  0  0  0  0  0  0  0  0
  -23.3290  -13.1270   -3.1920 C   0  0  0  0  0  0  0  0  0  0  0  0
  -22.4100  -12.1270   -3.4350 C   0  0  0  0  0  0  0  0  0  0  0  0
  -24.6260  -12.7870   -2.8630 C   0  0  0  0  0  0  0  0  0  0  0  0
  -22.7920  -10.7960   -3.3490 C   0  0  0  0  0  0  0  0  0  0  0  0
  -25.0100  -11.4580   -2.7780 C   0  0  0  0  0  0  0  0  0  0  0  0
  -24.2700   -8.9370   -0.5410 C   0  0  0  0  0  0  0  0  0  0  0  0
  -25.6270   -7.4590   -1.8210 C   0  0  0  0  0  0  0  0  0  0  0  0
  -24.6410   -8.2470    0.6160 C   0  0  0  0  0  0  0  0  0  0  0  0
  -25.9870   -6.7780   -0.6740 C   0  0  0  0  0  0  0  0  0  0  0  0
  -24.7470   -2.2100    5.2480 C   0  0  0  0  0  0  0  0  0  0  0  0
  -25.2630   -3.0660    4.1230 C   0  0  0  0  0  0  0  0  0  0  0  0
  -23.2730   -2.4670    5.4160 C   0  0  0  0  0  0  0  0  0  0  0  0
  -23.6190   -4.8650    4.7550 C   0  0  0  0  0  0  0  0  0  0  0  0
  -25.0420   -5.8640    2.4720 N   0  0  0  0  0  0  0  0  0  0  0  0
  -24.4500   -9.1490   -2.9610 O   0  0  0  0  0  0  0  0  0  0  0  0
  -22.4590   -4.2330    6.8420 C   0  0  0  0  0  0  0  0  0  0  0  0
  -24.0900  -10.4540   -3.0140 C   0  0  0  0  0  0  0  0  0  0  0  0
  -24.7710   -8.5480   -1.7780 C   0  0  0  0  0  0  0  0  0  0  0  0
  -25.5210   -7.1660    0.5630 C   0  0  0  0  0  0  0  0  0  0  0  0
  -25.8930   -6.4530    1.6340 C   0  0  0  0  0  0  0  0  0  0  0  0
  -25.0800   -4.5390    4.4050 C   0  0  2  0  0  0  0  0  0  0  0  0
  -25.5810   -5.3230    3.2610 N   0  0  0  0  0  0  0  0  0  0  0  0
  -23.0710   -3.8830    5.7040 N   0  0  0  0  0  0  0  0  0  0  0  0
  -30.0194   -4.5998    3.9453 H   0  0  0  0  0  0  0  0  0  0  0  0
  -21.9196   -6.9074    9.0465 H   0  0  0  0  0  0  0  0  0  0  0  0
  -22.0266   -5.0210    9.2918 H   0  0  0  0  0  0  0  0  0  0  0  0
  -27.7864   -7.5597    0.0659 H   0  0  0  0  0  0  0  0  0  0  0  0
  -29.5477   -7.3622    0.2693 H   0  0  0  0  0  0  0  0  0  0  0  0
  -22.3562   -6.5206    6.3677 H   0  0  0  0  0  0  0  0  0  0  0  0
  -23.0315  -14.1838   -3.2597 H   0  0  0  0  0  0  0  0  0  0  0  0
  -21.3734  -12.3853   -3.6972 H   0  0  0  0  0  0  0  0  0  0  0  0
  -25.3628  -13.5797   -2.6661 H   0  0  0  0  0  0  0  0  0  0  0  0
  -22.0551  -10.0043   -3.5493 H   0  0  0  0  0  0  0  0  0  0  0  0
  -26.0488  -11.2019   -2.5223 H   0  0  0  0  0  0  0  0  0  0  0  0
  -23.5795   -9.7905   -0.4728 H   0  0  0  0  0  0  0  0  0  0  0  0
  -26.0290   -7.1293   -2.7904 H   0  0  0  0  0  0  0  0  0  0  0  0
  -24.2314   -8.5622    1.5870 H   0  0  0  0  0  0  0  0  0  0  0  0
  -26.6582   -5.9098   -0.7499 H   0  0  0  0  0  0  0  0  0  0  0  0
  -24.9127   -1.1487    5.0111 H   0  0  0  0  0  0  0  0  0  0  0  0
  -25.2780   -2.4565    6.1793 H   0  0  0  0  0  0  0  0  0  0  0  0
  -26.3347   -2.8613    3.9833 H   0  0  0  0  0  0  0  0  0  0  0  0
  -24.6902   -2.8191    3.2169 H   0  0  0  0  0  0  0  0  0  0  0  0
  -22.7434   -2.1991    4.4899 H   0  0  0  0  0  0  0  0  0  0  0  0
  -22.8800   -1.8581    6.2436 H   0  0  0  0  0  0  0  0  0  0  0  0
  -23.5726   -5.8666    5.2073 H   0  0  0  0  0  0  0  0  0  0  0  0
  -23.0219   -4.8303    3.8318 H   0  0  0  0  0  0  0  0  0  0  0  0
  -25.6700   -4.8177    5.2906 H   0  0  0  0  0  0  0  0  0  0  0  0
  1  2  2  0
  2  3  1  0
  3  4  2  0
  4  5  1  0
  1  6  1  0
  5  6  2  0
  6  8  1  0
  7 10  2  3
 11 12  2  0
 11 13  1  0
 12 14  1  0
 13 15  2  0
 16 18  2  0
 17 19  1  0
 20 21  1  0
 20 22  1  0
  9 26  2  0
 10 26  1  0
 14 27  2  0
 15 27  1  0
 25 27  1  0
 16 28  1  0
 17 28  2  0
 25 28  1  0
 18 29  1  0
 19 29  2  0
  5 30  1  0
 24 30  2  0
 29 30  1  0
 21 31  1  0
 23 31  1  0
  4 32  1  0
 24 32  1  0
 31 32  1  0
 22 33  1  0
 23 33  1  0
 26 33  1  0
  2 34  1  0
  7 35  1  0
  7 36  1  0
  8 37  1  0
  8 38  1  0
 10 39  1  0
 11 40  1  0
 12 41  1  0
 13 42  1  0
 14 43  1  0
 15 44  1  0
 16 45  1  0
 17 46  1  0
 18 47  1  0
 19 48  1  0
 20 49  1  0
 20 50  1  0
 21 51  1  0
 21 52  1  0
 22 53  1  0
 22 54  1  0
 23 55  1  0
 23 56  1  0
 31 57  1  1
M  END
$$$$
