PDB_DB00783_88
     RDKit          3D

 44 47  0  0  0  0  0  0  0  0999 V2000
   27.0340  -25.5440  -12.6650 C   0  0  0  0  0  0  0  0  0  0  0  0
   27.1170  -24.1890  -12.8950 C   0  0  0  0  0  0  0  0  0  0  0  0
   26.0140  -23.3280  -12.6910 C   0  0  0  0  0  0  0  0  0  0  0  0
   26.1580  -21.9460  -12.9420 O   0  0  0  0  0  0  0  0  0  0  0  0
   24.7850  -23.8580  -12.2490 C   0  0  0  0  0  0  0  0  0  0  0  0
   24.6640  -25.2150  -11.9950 C   0  0  0  0  0  0  0  0  0  0  0  0
   23.3210  -25.7680  -11.5480 C   0  0  0  0  0  0  0  0  0  0  0  0
   23.1850  -27.2880  -11.8340 C   0  0  0  0  0  0  0  0  0  0  0  0
   24.4540  -27.9580  -11.2790 C   0  0  2  0  0  0  0  0  0  0  0  0
   25.7250  -27.5810  -12.0380 C   0  0  1  0  0  0  0  0  0  0  0  0
   25.8230  -26.1060  -12.2310 C   0  0  0  0  0  0  0  0  0  0  0  0
   27.0080  -28.2110  -11.4360 C   0  0  0  0  0  0  0  0  0  0  0  0
   26.8990  -29.7540  -11.3000 C   0  0  0  0  0  0  0  0  0  0  0  0
   25.5790  -30.0760  -10.5430 C   0  0  1  0  0  0  0  0  0  0  0  0
   24.3850  -29.4740  -11.2560 C   0  0  1  0  0  0  0  0  0  0  0  0
   23.1530  -30.0660  -10.5800 C   0  0  0  0  0  0  0  0  0  0  0  0
   23.6770  -31.3980  -10.0090 C   0  0  0  0  0  0  0  0  0  0  0  0
   25.0700  -31.5150  -10.5750 C   0  0  2  0  0  0  0  0  0  0  0  0
   25.8020  -32.3830   -9.7290 O   0  0  0  0  0  0  0  0  0  0  0  0
   25.7370  -29.5740   -9.0740 C   0  0  0  0  0  0  0  0  0  0  0  0
   27.9145  -26.1846  -12.8210 H   0  0  0  0  0  0  0  0  0  0  0  0
   28.0685  -23.7642  -13.2475 H   0  0  0  0  0  0  0  0  0  0  0  0
   25.3917  -21.3350  -12.8022 H   0  0  0  0  0  0  0  0  0  0  0  0
   23.9204  -23.1933  -12.1054 H   0  0  0  0  0  0  0  0  0  0  0  0
   23.2117  -25.6004  -10.4663 H   0  0  0  0  0  0  0  0  0  0  0  0
   22.5365  -25.2471  -12.1165 H   0  0  0  0  0  0  0  0  0  0  0  0
   22.2932  -27.6900  -11.3310 H   0  0  0  0  0  0  0  0  0  0  0  0
   23.0757  -27.4794  -12.9117 H   0  0  0  0  0  0  0  0  0  0  0  0
   24.5007  -27.5714  -10.2502 H   0  0  0  0  0  0  0  0  0  0  0  0
   25.6441  -28.0272  -13.0402 H   0  0  0  0  0  0  0  0  0  0  0  0
   27.8596  -27.9729  -12.0903 H   0  0  0  0  0  0  0  0  0  0  0  0
   27.1468  -27.7933  -10.4279 H   0  0  0  0  0  0  0  0  0  0  0  0
   26.8798  -30.2166  -12.2978 H   0  0  0  0  0  0  0  0  0  0  0  0
   27.7635  -30.1517  -10.7482 H   0  0  0  0  0  0  0  0  0  0  0  0
   24.3547  -29.7280  -12.3258 H   0  0  0  0  0  0  0  0  0  0  0  0
   22.7880  -29.4082   -9.7775 H   0  0  0  0  0  0  0  0  0  0  0  0
   22.3018  -30.1931  -11.2650 H   0  0  0  0  0  0  0  0  0  0  0  0
   23.7028  -31.3689   -8.9097 H   0  0  0  0  0  0  0  0  0  0  0  0
   23.0386  -32.2532  -10.2756 H   0  0  0  0  0  0  0  0  0  0  0  0
   25.1449  -31.9311  -11.5905 H   0  0  0  0  0  0  0  0  0  0  0  0
   25.6131  -32.1590   -8.7834 H   0  0  0  0  0  0  0  0  0  0  0  0
   25.4810  -30.3873   -8.3790 H   0  0  0  0  0  0  0  0  0  0  0  0
   26.7774  -29.2600   -8.9037 H   0  0  0  0  0  0  0  0  0  0  0  0
   25.0640  -28.7208   -8.9037 H   0  0  0  0  0  0  0  0  0  0  0  0
  1  2  2  0
  2  3  1  0
  3  4  1  0
  3  5  2  0
  5  6  1  0
  6  7  1  0
  7  8  1  0
  8  9  1  0
  9 10  1  0
  1 11  1  0
  6 11  2  0
 10 11  1  0
 10 12  1  0
 12 13  1  0
 13 14  1  0
  9 15  1  0
 14 15  1  0
 15 16  1  0
 16 17  1  0
 14 18  1  0
 17 18  1  0
 18 19  1  0
 14 20  1  1
  1 21  1  0
  2 22  1  0
  4 23  1  0
  5 24  1  0
  7 25  1  0
  7 26  1  0
  8 27  1  0
  8 28  1  0
  9 29  1  1
 10 30  1  6
 12 31  1  0
 12 32  1  0
 13 33  1  0
 13 34  1  0
 15 35  1  6
 16 36  1  0
 16 37  1  0
 17 38  1  0
 17 39  1  0
 18 40  1  6
 19 41  1  0
 20 42  1  0
 20 43  1  0
 20 44  1  0
M  END
$$$$
