PDB_DB05812_91
     RDKit          3D

 57 61  0  0  0  0  0  0  0  0999 V2000
   72.8210   51.1270   29.3810 C   0  0  0  0  0  0  0  0  0  0  0  0
   73.5360   50.3290   28.3120 C   0  0  0  0  0  0  0  0  0  0  0  0
   73.1270   50.7960   26.9350 C   0  0  2  0  0  0  0  0  0  0  0  0
   73.7530   49.9640   25.9280 O   0  0  0  0  0  0  0  0  0  0  0  0
   73.5010   52.2600   26.7900 C   0  0  0  0  0  0  0  0  0  0  0  0
   72.9850   53.1120   27.9270 C   0  0  0  0  0  0  0  0  0  0  0  0
   72.4740   54.3150   27.6380 C   0  0  0  0  0  0  0  0  0  0  0  0
   71.9920   55.3040   28.6650 C   0  0  0  0  0  0  0  0  0  0  0  0
   72.2730   54.8860   30.0950 C   0  0  2  0  0  0  0  0  0  0  0  0
   72.1680   53.3770   30.2610 C   0  0  1  0  0  0  0  0  0  0  0  0
   73.1370   52.6210   29.3420 C   0  0  1  0  0  0  0  0  0  0  0  0
   72.2250   52.9170   31.7300 C   0  0  0  0  0  0  0  0  0  0  0  0
   71.2760   53.7150   32.6260 C   0  0  0  0  0  0  0  0  0  0  0  0
   71.5090   55.1870   32.4670 C   0  0  1  0  0  0  0  0  0  0  0  0
   71.2320   55.4840   31.0200 C   0  0  1  0  0  0  0  0  0  0  0  0
   71.0370   56.9860   30.9600 C   0  0  0  0  0  0  0  0  0  0  0  0
   70.1380   57.1930   32.1570 C   0  0  0  0  0  0  0  0  0  0  0  0
   70.6540   56.1970   33.2170 C   0  0  0  0  0  0  0  0  0  0  0  0
   72.9200   55.5530   32.8930 C   0  0  0  0  0  0  0  0  0  0  0  0
   74.5940   52.8510   29.7360 C   0  0  0  0  0  0  0  0  0  0  0  0
   69.6820   55.7200   34.2560 C   0  0  0  0  0  0  0  0  0  0  0  0
   68.3480   56.1570   34.3270 C   0  0  0  0  0  0  0  0  0  0  0  0
   67.4960   55.7770   35.2980 N   0  0  0  0  0  0  0  0  0  0  0  0
   67.9400   54.9790   36.2670 C   0  0  0  0  0  0  0  0  0  0  0  0
   69.2620   54.5330   36.2720 C   0  0  0  0  0  0  0  0  0  0  0  0
   70.1470   54.9110   35.2820 C   0  0  0  0  0  0  0  0  0  0  0  0
   71.7371   50.9970   29.2456 H   0  0  0  0  0  0  0  0  0  0  0  0
   73.1691   50.7486   30.3534 H   0  0  0  0  0  0  0  0  0  0  0  0
   74.6219   50.4590   28.4298 H   0  0  0  0  0  0  0  0  0  0  0  0
   73.2649   49.2685   28.4212 H   0  0  0  0  0  0  0  0  0  0  0  0
   72.0397   50.7034   26.7965 H   0  0  0  0  0  0  0  0  0  0  0  0
   74.2857   49.2559   26.3695 H   0  0  0  0  0  0  0  0  0  0  0  0
   74.5976   52.3412   26.7596 H   0  0  0  0  0  0  0  0  0  0  0  0
   73.0385   52.6296   25.8629 H   0  0  0  0  0  0  0  0  0  0  0  0
   72.4014   54.6001   26.5781 H   0  0  0  0  0  0  0  0  0  0  0  0
   72.4910   56.2668   28.4805 H   0  0  0  0  0  0  0  0  0  0  0  0
   70.8991   55.3696   28.5589 H   0  0  0  0  0  0  0  0  0  0  0  0
   73.2886   55.2328   30.3365 H   0  0  0  0  0  0  0  0  0  0  0  0
   71.1574   53.1024   29.9243 H   0  0  0  0  0  0  0  0  0  0  0  0
   71.9470   51.8538   31.7787 H   0  0  0  0  0  0  0  0  0  0  0  0
   73.2497   53.0817   32.0945 H   0  0  0  0  0  0  0  0  0  0  0  0
   70.2371   53.4820   32.3495 H   0  0  0  0  0  0  0  0  0  0  0  0
   71.4634   53.4387   33.6741 H   0  0  0  0  0  0  0  0  0  0  0  0
   70.3235   54.9962   30.6372 H   0  0  0  0  0  0  0  0  0  0  0  0
   71.9900   57.5243   31.0696 H   0  0  0  0  0  0  0  0  0  0  0  0
   70.6284   57.3583   30.0090 H   0  0  0  0  0  0  0  0  0  0  0  0
   69.2997   57.8988   32.2519 H   0  0  0  0  0  0  0  0  0  0  0  0
   72.9791   55.5683   33.9913 H   0  0  0  0  0  0  0  0  0  0  0  0
   73.6270   54.8085   32.4981 H   0  0  0  0  0  0  0  0  0  0  0  0
   73.1760   56.5473   32.4981 H   0  0  0  0  0  0  0  0  0  0  0  0
   74.6795   52.8645   30.8326 H   0  0  0  0  0  0  0  0  0  0  0  0
   75.2161   52.0399   29.3296 H   0  0  0  0  0  0  0  0  0  0  0  0
   74.9361   53.8143   29.3296 H   0  0  0  0  0  0  0  0  0  0  0  0
   67.9815   56.8441   33.5501 H   0  0  0  0  0  0  0  0  0  0  0  0
   67.2576   54.6682   37.0718 H   0  0  0  0  0  0  0  0  0  0  0  0
   69.6052   53.8686   37.0788 H   0  0  0  0  0  0  0  0  0  0  0  0
   71.1953   54.5786   35.3064 H   0  0  0  0  0  0  0  0  0  0  0  0
  1  2  1  0
  2  3  1  0
  3  4  1  0
  3  5  1  0
  5  6  1  0
  6  7  2  0
  7  8  1  0
  8  9  1  0
  9 10  1  0
  1 11  1  0
  6 11  1  0
 10 11  1  0
 10 12  1  0
 12 13  1  0
 13 14  1  0
  9 15  1  0
 14 15  1  0
 15 16  1  0
 16 17  1  0
 14 18  1  0
 17 18  2  0
 14 19  1  6
 11 20  1  1
 18 21  1  0
 21 22  2  0
 22 23  1  0
 24 23  2  0
 24 25  1  0
 21 26  1  0
 25 26  2  0
  1 27  1  0
  1 28  1  0
  2 29  1  0
  2 30  1  0
  3 31  1  1
  4 32  1  0
  5 33  1  0
  5 34  1  0
  7 35  1  0
  8 36  1  0
  8 37  1  0
  9 38  1  1
 10 39  1  6
 12 40  1  0
 12 41  1  0
 13 42  1  0
 13 43  1  0
 15 44  1  6
 16 45  1  0
 16 46  1  0
 17 47  1  0
 19 48  1  0
 19 49  1  0
 19 50  1  0
 20 51  1  0
 20 52  1  0
 20 53  1  0
 22 54  1  0
 24 55  1  0
 25 56  1  0
 26 57  1  0
M  END
$$$$
