PDB_DB00783_87
     RDKit          3D

 44 47  0  0  0  0  0  0  0  0999 V2000
    8.6600  -36.1370   13.9850 C   0  0  0  0  0  0  0  0  0  0  0  0
    7.4230  -35.5500   14.1820 C   0  0  0  0  0  0  0  0  0  0  0  0
    7.2370  -34.1790   13.9750 C   0  0  0  0  0  0  0  0  0  0  0  0
    5.9700  -33.6900   14.2310 O   0  0  0  0  0  0  0  0  0  0  0  0
    8.3020  -33.3560   13.5230 C   0  0  0  0  0  0  0  0  0  0  0  0
    9.5650  -33.9280   13.3100 C   0  0  0  0  0  0  0  0  0  0  0  0
   10.7260  -33.0660   12.8300 C   0  0  0  0  0  0  0  0  0  0  0  0
   12.0910  -33.7670   13.0150 C   0  0  0  0  0  0  0  0  0  0  0  0
   11.9680  -35.2040   12.4730 C   0  0  2  0  0  0  0  0  0  0  0  0
   11.0720  -36.0740   13.3560 C   0  0  1  0  0  0  0  0  0  0  0  0
    9.7550  -35.3880   13.5540 C   0  0  0  0  0  0  0  0  0  0  0  0
   10.9400  -37.5200   12.8260 C   0  0  0  0  0  0  0  0  0  0  0  0
   12.3350  -38.1940   12.5890 C   0  0  0  0  0  0  0  0  0  0  0  0
   13.2900  -37.2430   11.8210 C   0  0  1  0  0  0  0  0  0  0  0  0
   13.3280  -35.8660   12.4230 C   0  0  1  0  0  0  0  0  0  0  0  0
   14.4440  -35.0900   11.7110 C   0  0  0  0  0  0  0  0  0  0  0  0
   15.5070  -36.2030   11.5580 C   0  0  0  0  0  0  0  0  0  0  0  0
   14.7910  -37.5090   11.9190 C   0  0  2  0  0  0  0  0  0  0  0  0
   15.2210  -38.5170   11.0050 O   0  0  0  0  0  0  0  0  0  0  0  0
   12.8380  -37.1490   10.3260 C   0  0  0  0  0  0  0  0  0  0  0  0
    8.7824  -37.2141   14.1716 H   0  0  0  0  0  0  0  0  0  0  0  0
    6.5739  -36.1698   14.5059 H   0  0  0  0  0  0  0  0  0  0  0  0
    5.7756  -32.7277   14.1032 H   0  0  0  0  0  0  0  0  0  0  0  0
    8.1388  -32.2833   13.3421 H   0  0  0  0  0  0  0  0  0  0  0  0
   10.5840  -32.8438   11.7621 H   0  0  0  0  0  0  0  0  0  0  0  0
   10.7349  -32.1462   13.4333 H   0  0  0  0  0  0  0  0  0  0  0  0
   12.8680  -33.2234   12.4575 H   0  0  0  0  0  0  0  0  0  0  0  0
   12.3701  -33.7834   14.0789 H   0  0  0  0  0  0  0  0  0  0  0  0
   11.5277  -35.1215   11.4683 H   0  0  0  0  0  0  0  0  0  0  0  0
   11.5459  -36.1882   14.3421 H   0  0  0  0  0  0  0  0  0  0  0  0
   10.3787  -38.1165   13.5603 H   0  0  0  0  0  0  0  0  0  0  0  0
   10.4167  -37.4786   11.8594 H   0  0  0  0  0  0  0  0  0  0  0  0
   12.7831  -38.4447   13.5618 H   0  0  0  0  0  0  0  0  0  0  0  0
   12.1869  -39.1024   11.9867 H   0  0  0  0  0  0  0  0  0  0  0  0
   13.5810  -35.9010   13.4929 H   0  0  0  0  0  0  0  0  0  0  0  0
   14.1132  -34.7072   10.7343 H   0  0  0  0  0  0  0  0  0  0  0  0
   14.7921  -34.1936   12.2452 H   0  0  0  0  0  0  0  0  0  0  0  0
   15.8766  -36.2412   10.5227 H   0  0  0  0  0  0  0  0  0  0  0  0
   16.3790  -36.0247   12.2044 H   0  0  0  0  0  0  0  0  0  0  0  0
   15.0228  -37.8554   12.9370 H   0  0  0  0  0  0  0  0  0  0  0  0
   15.5550  -39.3000   11.5104 H   0  0  0  0  0  0  0  0  0  0  0  0
   11.7619  -36.9252   10.2817 H   0  0  0  0  0  0  0  0  0  0  0  0
   13.4000  -36.3485    9.8227 H   0  0  0  0  0  0  0  0  0  0  0  0
   13.0343  -38.1072    9.8227 H   0  0  0  0  0  0  0  0  0  0  0  0
  1  2  2  0
  2  3  1  0
  3  4  1  0
  3  5  2  0
  5  6  1  0
  6  7  1  0
  7  8  1  0
  8  9  1  0
  9 10  1  0
  1 11  1  0
  6 11  2  0
 10 11  1  0
 10 12  1  0
 12 13  1  0
 13 14  1  0
  9 15  1  0
 14 15  1  0
 15 16  1  0
 16 17  1  0
 14 18  1  0
 17 18  1  0
 18 19  1  0
 14 20  1  6
  1 21  1  0
  2 22  1  0
  4 23  1  0
  5 24  1  0
  7 25  1  0
  7 26  1  0
  8 27  1  0
  8 28  1  0
  9 29  1  6
 10 30  1  1
 12 31  1  0
 12 32  1  0
 13 33  1  0
 13 34  1  0
 15 35  1  1
 16 36  1  0
 16 37  1  0
 17 38  1  0
 17 39  1  0
 18 40  1  1
 19 41  1  0
 20 42  1  0
 20 43  1  0
 20 44  1  0
M  END
$$$$
