PDB_DB00936_98
     RDKit          3D

 16 16  0  0  0  0  0  0  0  0999 V2000
   68.4020   20.7760  201.1590 C   0  0  0  0  0  0  0  0  0  0  0  0
   69.3670   20.8740  202.0380 O   0  0  0  0  0  0  0  0  0  0  0  0
   67.3450   20.1980  201.4310 O   0  0  0  0  0  0  0  0  0  0  0  0
   68.6630   21.3730  199.8540 C   0  0  0  0  0  0  0  0  0  0  0  0
   67.6870   21.3290  198.8460 C   0  0  0  0  0  0  0  0  0  0  0  0
   67.9550   21.8940  197.6110 C   0  0  0  0  0  0  0  0  0  0  0  0
   69.1670   22.5030  197.3700 C   0  0  0  0  0  0  0  0  0  0  0  0
   70.1350   22.5550  198.3570 C   0  0  0  0  0  0  0  0  0  0  0  0
   69.8820   21.9980  199.5790 C   0  0  0  0  0  0  0  0  0  0  0  0
   66.4760   20.7420  199.0190 O   0  0  0  0  0  0  0  0  0  0  0  0
   66.6268   20.1343  200.7525 H   0  0  0  0  0  0  0  0  0  0  0  0
   67.1950   21.8564  196.8166 H   0  0  0  0  0  0  0  0  0  0  0  0
   69.3665   22.9512  196.3855 H   0  0  0  0  0  0  0  0  0  0  0  0
   71.1017   23.0413  198.1595 H   0  0  0  0  0  0  0  0  0  0  0  0
   70.6535   22.0426  200.3618 H   0  0  0  0  0  0  0  0  0  0  0  0
   65.8188   20.7354  198.2786 H   0  0  0  0  0  0  0  0  0  0  0  0
  1  2  2  0
  1  3  1  0
  1  4  1  0
  4  5  2  0
  5  6  1  0
  6  7  2  0
  7  8  1  0
  4  9  1  0
  8  9  2  0
  5 10  1  0
  3 11  1  0
  6 12  1  0
  7 13  1  0
  8 14  1  0
  9 15  1  0
 10 16  1  0
M  END
$$$$
