PDB_DB01136_98
     RDKit          3D

 56 59  0  0  0  0  0  0  0  0999 V2000
   11.4250  -11.1270   21.5280 O   0  0  0  0  0  0  0  0  0  0  0  0
   10.5880  -10.4240   20.6080 C   0  0  2  0  0  0  0  0  0  0  0  0
    9.2110  -10.3520   21.2230 C   0  0  0  0  0  0  0  0  0  0  0  0
    8.3410   -9.8280   20.2070 O   0  0  0  0  0  0  0  0  0  0  0  0
    7.0170   -9.7150   20.4870 C   0  0  0  0  0  0  0  0  0  0  0  0
    6.5730  -10.0000   21.7610 C   0  0  0  0  0  0  0  0  0  0  0  0
    5.2240   -9.8550   22.0440 C   0  0  0  0  0  0  0  0  0  0  0  0
    4.3660   -9.4150   21.0980 C   0  0  0  0  0  0  0  0  0  0  0  0
    4.8110   -9.1050   19.8440 C   0  0  0  0  0  0  0  0  0  0  0  0
    6.1390   -9.2180   19.5470 C   0  0  0  0  0  0  0  0  0  0  0  0
    6.3120   -8.9020   18.2110 C   0  0  0  0  0  0  0  0  0  0  0  0
    7.4410   -8.8530   17.4310 C   0  0  0  0  0  0  0  0  0  0  0  0
    7.3550   -8.4150   16.0770 C   0  0  0  0  0  0  0  0  0  0  0  0
    6.1450   -8.0500   15.5470 C   0  0  0  0  0  0  0  0  0  0  0  0
    5.0020   -8.1370   16.3630 C   0  0  0  0  0  0  0  0  0  0  0  0
    5.0940   -8.5250   17.6890 C   0  0  0  0  0  0  0  0  0  0  0  0
    4.1910   -8.6940   18.7120 N   0  0  0  0  0  0  0  0  0  0  0  0
   10.4550  -11.2240   19.3120 C   0  0  0  0  0  0  0  0  0  0  0  0
   11.7000  -12.0110   19.1280 N   0  0  0  0  0  0  0  0  0  0  0  0
   11.7260  -12.5710   17.7290 C   0  0  0  0  0  0  0  0  0  0  0  0
   13.0150  -13.3630   17.5880 C   0  0  0  0  0  0  0  0  0  0  0  0
   14.0570  -12.4150   17.3490 O   0  0  0  0  0  0  0  0  0  0  0  0
   15.4140  -12.7640   17.4160 C   0  0  0  0  0  0  0  0  0  0  0  0
   15.9930  -13.1690   18.5940 C   0  0  0  0  0  0  0  0  0  0  0  0
   17.3420  -13.5350   18.6540 C   0  0  0  0  0  0  0  0  0  0  0  0
   18.1450  -13.4700   17.5180 C   0  0  0  0  0  0  0  0  0  0  0  0
   17.5820  -13.0290   16.3410 C   0  0  0  0  0  0  0  0  0  0  0  0
   16.2160  -12.7030   16.2820 C   0  0  0  0  0  0  0  0  0  0  0  0
   15.6520  -12.2810   15.0810 O   0  0  0  0  0  0  0  0  0  0  0  0
   16.2190  -12.7490   13.8440 C   0  0  0  0  0  0  0  0  0  0  0  0
   11.1581  -10.9028   22.4546 H   0  0  0  0  0  0  0  0  0  0  0  0
   11.0121   -9.4308   20.3991 H   0  0  0  0  0  0  0  0  0  0  0  0
    8.8780  -11.3547   21.5292 H   0  0  0  0  0  0  0  0  0  0  0  0
    9.2070   -9.7147   22.1195 H   0  0  0  0  0  0  0  0  0  0  0  0
    7.2758  -10.3359   22.5376 H   0  0  0  0  0  0  0  0  0  0  0  0
    4.8485  -10.1005   23.0484 H   0  0  0  0  0  0  0  0  0  0  0  0
    3.2985   -9.3052   21.3397 H   0  0  0  0  0  0  0  0  0  0  0  0
    8.4126   -9.1519   17.8512 H   0  0  0  0  0  0  0  0  0  0  0  0
    8.2620   -8.3699   15.4562 H   0  0  0  0  0  0  0  0  0  0  0  0
    6.0691   -7.6972   14.5079 H   0  0  0  0  0  0  0  0  0  0  0  0
    4.0168   -7.8922   15.9395 H   0  0  0  0  0  0  0  0  0  0  0  0
    3.1776   -8.5299   18.6286 H   0  0  0  0  0  0  0  0  0  0  0  0
    9.5914  -11.9020   19.3790 H   0  0  0  0  0  0  0  0  0  0  0  0
   10.3021  -10.5464   18.4591 H   0  0  0  0  0  0  0  0  0  0  0  0
   12.5179  -11.4014   19.2710 H   0  0  0  0  0  0  0  0  0  0  0  0
   10.8594  -13.2295   17.5701 H   0  0  0  0  0  0  0  0  0  0  0  0
   11.6794  -11.7636   16.9834 H   0  0  0  0  0  0  0  0  0  0  0  0
   13.2179  -13.9240   18.5121 H   0  0  0  0  0  0  0  0  0  0  0  0
   12.9447  -14.0887   16.7644 H   0  0  0  0  0  0  0  0  0  0  0  0
   15.3835  -13.2063   19.5089 H   0  0  0  0  0  0  0  0  0  0  0  0
   17.7722  -13.8771   19.6068 H   0  0  0  0  0  0  0  0  0  0  0  0
   19.2042  -13.7640   17.5598 H   0  0  0  0  0  0  0  0  0  0  0  0
   18.2060  -12.9312   15.4404 H   0  0  0  0  0  0  0  0  0  0  0  0
   17.0510  -13.4358   14.0587 H   0  0  0  0  0  0  0  0  0  0  0  0
   15.4480  -13.2772   13.2639 H   0  0  0  0  0  0  0  0  0  0  0  0
   16.5914  -11.8918   13.2639 H   0  0  0  0  0  0  0  0  0  0  0  0
  1  2  1  0
  2  3  1  0
  3  4  1  0
  4  5  1  0
  5  6  2  0
  6  7  1  0
  7  8  2  0
  8  9  1  0
  5 10  1  0
  9 10  2  0
 10 11  1  0
 11 12  2  0
 12 13  1  0
 13 14  2  0
 14 15  1  0
 11 16  1  0
 15 16  2  0
  9 17  1  0
 16 17  1  0
  2 18  1  0
 18 19  1  0
 19 20  1  0
 20 21  1  0
 21 22  1  0
 22 23  1  0
 23 24  2  0
 24 25  1  0
 25 26  2  0
 26 27  1  0
 23 28  1  0
 27 28  2  0
 28 29  1  0
 29 30  1  0
  1 31  1  0
  2 32  1  6
  3 33  1  0
  3 34  1  0
  6 35  1  0
  7 36  1  0
  8 37  1  0
 12 38  1  0
 13 39  1  0
 14 40  1  0
 15 41  1  0
 17 42  1  0
 18 43  1  0
 18 44  1  0
 19 45  1  0
 20 46  1  0
 20 47  1  0
 21 48  1  0
 21 49  1  0
 24 50  1  0
 25 51  1  0
 26 52  1  0
 27 53  1  0
 30 54  1  0
 30 55  1  0
 30 56  1  0
M  END
$$$$
