PDB_DB00763_99
     RDKit          3D

 13 13  0  0  0  0  0  0  0  0999 V2000
    2.8560    4.7910   33.8920 N   0  0  0  0  0  0  0  0  0  0  0  0
    2.7180    5.9410   34.6290 C   0  0  0  0  0  0  0  0  0  0  0  0
    3.7040    4.0310   34.5360 C   0  0  0  0  0  0  0  0  0  0  0  0
    4.2760    2.3920   34.1450 S   0  0  0  0  0  0  0  0  0  0  0  0
    4.0960    4.5680   35.6130 N   0  0  0  0  0  0  0  0  0  0  0  0
    3.5430    5.8000   35.6980 C   0  0  0  0  0  0  0  0  0  0  0  0
    5.0800    3.9030   36.4730 C   0  0  0  0  0  0  0  0  0  0  0  0
    2.3834    4.5695   33.0040 H   0  0  0  0  0  0  0  0  0  0  0  0
    2.0712    6.8009   34.4002 H   0  0  0  0  0  0  0  0  0  0  0  0
    3.7271    6.5464   36.4847 H   0  0  0  0  0  0  0  0  0  0  0  0
    4.8221    4.0773   37.5280 H   0  0  0  0  0  0  0  0  0  0  0  0
    5.0751    2.8223   36.2681 H   0  0  0  0  0  0  0  0  0  0  0  0
    6.0809    4.3106   36.2681 H   0  0  0  0  0  0  0  0  0  0  0  0
  1  2  1  0
  1  3  1  0
  3  4  2  0
  3  5  1  0
  2  6  2  0
  5  6  1  0
  5  7  1  0
  1  8  1  0
  2  9  1  0
  6 10  1  0
  7 11  1  0
  7 12  1  0
  7 13  1  0
M  END
$$$$
