PDB_DB01092_96
     RDKit          3D

 85 90  0  0  0  0  0  0  0  0999 V2000
  -58.3830   83.0450  -48.4230 C   0  0  2  0  0  0  0  0  0  0  0  0
  -59.5850   82.1370  -48.1510 C   0  0  0  0  0  0  0  0  0  0  0  0
  -59.2280   81.2020  -47.0110 C   0  0  1  0  0  0  0  0  0  0  0  0
  -58.0680   80.3240  -47.4350 C   0  0  0  0  0  0  0  0  0  0  0  0
  -56.8520   81.1650  -47.8350 C   0  0  1  0  0  0  0  0  0  0  0  0
  -55.7500   80.1990  -48.2360 C   0  0  0  0  0  0  0  0  0  0  0  0
  -56.1230   79.5240  -49.5440 C   0  0  0  0  0  0  0  0  0  0  0  0
  -56.2780   80.5990  -50.6250 C   0  0  2  0  0  0  0  0  0  0  0  0
  -57.3930   81.6310  -50.3170 C   0  0  1  0  0  0  0  0  0  0  0  0
  -57.1500   82.2530  -48.9050 C   0  0  1  0  0  0  0  0  0  0  0  0
  -57.5600   82.6150  -51.5090 C   0  0  1  0  0  0  0  0  0  0  0  0
  -57.7410   81.8590  -52.8180 C   0  0  0  0  0  0  0  0  0  0  0  0
  -56.5390   80.9830  -53.1540 C   0  0  1  0  0  0  0  0  0  0  0  0
  -56.2440   79.9740  -52.0300 C   0  0  2  0  0  0  0  0  0  0  0  0
  -57.2250   78.8250  -52.2460 C   0  0  0  0  0  0  0  0  0  0  0  0
  -57.4390   78.7510  -53.7480 C   0  0  0  0  0  0  0  0  0  0  0  0
  -56.9570   80.0790  -54.3210 C   0  0  2  0  0  0  0  0  0  0  0  0
  -55.3500   81.9110  -53.4430 C   0  0  0  0  0  0  0  0  0  0  0  0
  -55.9110   83.1690  -49.0120 C   0  0  0  0  0  0  0  0  0  0  0  0
  -55.8840   79.8370  -55.3460 C   0  0  0  0  0  0  0  0  0  0  0  0
  -54.6350   78.9880  -55.1290 C   0  0  0  0  0  0  0  0  0  0  0  0
  -55.9320   80.4240  -56.5450 C   0  0  0  0  0  0  0  0  0  0  0  0
  -54.7500   79.9410  -57.2640 C   0  0  0  0  0  0  0  0  0  0  0  0
  -58.7570   81.6290  -44.5850 C   0  0  2  0  0  0  0  0  0  0  0  0
  -59.3100   82.7470  -43.6970 C   0  0  1  0  0  0  0  0  0  0  0  0
  -60.8200   82.9260  -43.8920 C   0  0  1  0  0  0  0  0  0  0  0  0
  -61.6370   81.6630  -43.6320 C   0  0  2  0  0  0  0  0  0  0  0  0
  -60.9740   80.5060  -44.3800 C   0  0  2  0  0  0  0  0  0  0  0  0
  -61.4510   79.2020  -43.7690 C   0  0  0  0  0  0  0  0  0  0  0  0
  -58.0900   83.7960  -47.2290 O   0  0  0  0  0  0  0  0  0  0  0  0
  -58.8400   82.0760  -45.9420 O   0  0  0  0  0  0  0  0  0  0  0  0
  -56.3710   81.8530  -46.6810 O   0  0  0  0  0  0  0  0  0  0  0  0
  -58.6570   83.5430  -51.4300 O   0  0  0  0  0  0  0  0  0  0  0  0
  -54.9480   79.3860  -52.1840 O   0  0  0  0  0  0  0  0  0  0  0  0
  -56.2670   84.5600  -49.0510 O   0  0  0  0  0  0  0  0  0  0  0  0
  -53.9290   79.1650  -56.3590 O   0  0  0  0  0  0  0  0  0  0  0  0
  -54.4730   80.1460  -58.4360 O   0  0  0  0  0  0  0  0  0  0  0  0
  -58.9880   82.5010  -42.3190 O   0  0  0  0  0  0  0  0  0  0  0  0
  -61.2360   84.0780  -43.1280 O   0  0  0  0  0  0  0  0  0  0  0  0
  -62.9740   81.9160  -44.1100 O   0  0  0  0  0  0  0  0  0  0  0  0
  -59.5210   80.4380  -44.3680 O   0  0  0  0  0  0  0  0  0  0  0  0
  -58.6392   83.7346  -49.2408 H   0  0  0  0  0  0  0  0  0  0  0  0
  -60.4566   82.7474  -47.8722 H   0  0  0  0  0  0  0  0  0  0  0  0
  -59.8337   81.5576  -49.0524 H   0  0  0  0  0  0  0  0  0  0  0  0
  -60.0527   80.5363  -46.7165 H   0  0  0  0  0  0  0  0  0  0  0  0
  -57.7901   79.6678  -46.5971 H   0  0  0  0  0  0  0  0  0  0  0  0
  -58.3818   79.7302  -48.3062 H   0  0  0  0  0  0  0  0  0  0  0  0
  -54.8068   80.7505  -48.3634 H   0  0  0  0  0  0  0  0  0  0  0  0
  -55.6252   79.4377  -47.4519 H   0  0  0  0  0  0  0  0  0  0  0  0
  -55.3314   78.8179  -49.8350 H   0  0  0  0  0  0  0  0  0  0  0  0
  -57.0676   78.9730  -49.4253 H   0  0  0  0  0  0  0  0  0  0  0  0
  -55.3946   81.2543  -50.6112 H   0  0  0  0  0  0  0  0  0  0  0  0
  -58.3836   81.1593  -50.2377 H   0  0  0  0  0  0  0  0  0  0  0  0
  -56.6286   83.1984  -51.4630 H   0  0  0  0  0  0  0  0  0  0  0  0
  -58.6324   81.2196  -52.7364 H   0  0  0  0  0  0  0  0  0  0  0  0
  -57.8501   82.6017  -53.6221 H   0  0  0  0  0  0  0  0  0  0  0  0
  -56.8009   77.8818  -51.8712 H   0  0  0  0  0  0  0  0  0  0  0  0
  -58.1698   78.9882  -51.7067 H   0  0  0  0  0  0  0  0  0  0  0  0
  -56.8575   77.9201  -54.1740 H   0  0  0  0  0  0  0  0  0  0  0  0
  -58.4973   78.5744  -53.9903 H   0  0  0  0  0  0  0  0  0  0  0  0
  -57.7555   80.6068  -54.8630 H   0  0  0  0  0  0  0  0  0  0  0  0
  -54.9123   82.2526  -52.4934 H   0  0  0  0  0  0  0  0  0  0  0  0
  -54.5904   81.3645  -54.0213 H   0  0  0  0  0  0  0  0  0  0  0  0
  -55.6956   82.7806  -54.0213 H   0  0  0  0  0  0  0  0  0  0  0  0
  -55.2640   82.9931  -48.1400 H   0  0  0  0  0  0  0  0  0  0  0  0
  -55.3916   82.9266  -49.9509 H   0  0  0  0  0  0  0  0  0  0  0  0
  -54.0466   79.3558  -54.2755 H   0  0  0  0  0  0  0  0  0  0  0  0
  -54.8530   77.9358  -54.8937 H   0  0  0  0  0  0  0  0  0  0  0  0
  -56.6972   81.1225  -56.9146 H   0  0  0  0  0  0  0  0  0  0  0  0
  -57.7084   81.3973  -44.3466 H   0  0  0  0  0  0  0  0  0  0  0  0
  -58.8301   83.6893  -43.9999 H   0  0  0  0  0  0  0  0  0  0  0  0
  -61.0279   83.1140  -44.9557 H   0  0  0  0  0  0  0  0  0  0  0  0
  -61.6820   81.3981  -42.5653 H   0  0  0  0  0  0  0  0  0  0  0  0
  -61.2655   80.6799  -45.4263 H   0  0  0  0  0  0  0  0  0  0  0  0
  -61.4228   79.2791  -42.6721 H   0  0  0  0  0  0  0  0  0  0  0  0
  -62.4815   78.9992  -44.0959 H   0  0  0  0  0  0  0  0  0  0  0  0
  -60.7946   78.3821  -44.0959 H   0  0  0  0  0  0  0  0  0  0  0  0
  -58.3041   83.2474  -46.4332 H   0  0  0  0  0  0  0  0  0  0  0  0
  -56.6923   81.3935  -45.8651 H   0  0  0  0  0  0  0  0  0  0  0  0
  -58.8694   83.7227  -50.4799 H   0  0  0  0  0  0  0  0  0  0  0  0
  -54.5578   79.2090  -51.2915 H   0  0  0  0  0  0  0  0  0  0  0  0
  -56.3551   84.9041  -48.1269 H   0  0  0  0  0  0  0  0  0  0  0  0
  -59.6256   82.9881  -41.7391 H   0  0  0  0  0  0  0  0  0  0  0  0
  -61.1633   83.8767  -42.1614 H   0  0  0  0  0  0  0  0  0  0  0  0
  -63.5839   82.0314  -43.3387 H   0  0  0  0  0  0  0  0  0  0  0  0
  1  2  1  0
  2  3  1  0
  3  4  1  0
  4  5  1  0
  5  6  1  0
  6  7  1  0
  7  8  1  0
  8  9  1  0
  1 10  1  0
  5 10  1  0
  9 10  1  0
  9 11  1  0
 11 12  1  0
 12 13  1  0
  8 14  1  0
 13 14  1  0
 14 15  1  0
 15 16  1  0
 13 17  1  0
 16 17  1  0
 13 18  1  6
 10 19  1  6
 17 20  1  0
 20 21  1  0
 20 22  2  0
 22 23  1  0
 24 25  1  0
 25 26  1  0
 26 27  1  0
 27 28  1  0
 28 29  1  0
  1 30  1  0
  3 31  1  0
 24 31  1  0
  5 32  1  1
 11 33  1  0
 14 34  1  6
 19 35  1  0
 21 36  1  0
 23 36  1  0
 23 37  2  0
 25 38  1  0
 26 39  1  0
 27 40  1  0
 24 41  1  0
 28 41  1  0
  1 42  1  6
  2 43  1  0
  2 44  1  0
  3 45  1  1
  4 46  1  0
  4 47  1  0
  6 48  1  0
  6 49  1  0
  7 50  1  0
  7 51  1  0
  8 52  1  6
  9 53  1  1
 11 54  1  6
 12 55  1  0
 12 56  1  0
 15 57  1  0
 15 58  1  0
 16 59  1  0
 16 60  1  0
 17 61  1  6
 18 62  1  0
 18 63  1  0
 18 64  1  0
 19 65  1  0
 19 66  1  0
 21 67  1  0
 21 68  1  0
 22 69  1  0
 24 70  1  1
 25 71  1  6
 26 72  1  6
 27 73  1  1
 28 74  1  6
 29 75  1  0
 29 76  1  0
 29 77  1  0
 30 78  1  0
 32 79  1  0
 33 80  1  0
 34 81  1  0
 35 82  1  0
 38 83  1  0
 39 84  1  0
 40 85  1  0
M  END
$$$$
