PDB_DB00558_80
     RDKit          3D

 43 43  0  0  0  0  0  0  0  0999 V2000
   52.4950   41.5910  111.2410 C   0  0  0  0  0  0  0  0  0  0  0  0
   53.5620   40.9320  111.1710 O   0  0  0  0  0  0  0  0  0  0  0  0
   52.4340   42.5940  112.0060 O   0  0  0  0  0  0  0  0  0  0  0  0
   51.4340   41.2150  110.4910 C   0  0  0  0  0  0  0  0  0  0  0  0
   50.6190   42.4530  110.0650 C   0  0  0  0  0  0  0  0  0  0  0  0
   49.6560   42.2130  108.9830 C   0  0  1  0  0  0  0  0  0  0  0  0
   49.6690   40.9310  108.4080 C   0  0  1  0  0  0  0  0  0  0  0  0
   48.9210   41.0400  107.0440 N   0  0  0  0  0  0  0  0  0  0  0  0
   47.6250   40.4590  106.8410 C   0  0  0  0  0  0  0  0  0  0  0  0
   47.0610   39.8600  107.7410 O   0  0  0  0  0  0  0  0  0  0  0  0
   46.9720   40.6060  105.4990 C   0  0  0  0  0  0  0  0  0  0  0  0
   50.9830   40.3660  108.1690 C   0  0  1  0  0  0  0  0  0  0  0  0
   51.9490   40.5930  109.2290 O   0  0  0  0  0  0  0  0  0  0  0  0
   50.9460   38.8620  107.8510 C   0  0  2  0  0  0  0  0  0  0  0  0
   50.4910   38.1450  108.9260 O   0  0  0  0  0  0  0  0  0  0  0  0
   52.3390   38.3810  107.4970 C   0  0  2  0  0  0  0  0  0  0  0  0
   52.9690   39.3950  106.8150 O   0  0  0  0  0  0  0  0  0  0  0  0
   52.3950   37.0840  106.6980 C   0  0  0  0  0  0  0  0  0  0  0  0
   51.7750   37.0240  105.4460 O   0  0  0  0  0  0  0  0  0  0  0  0
   48.2160   42.5230  109.4870 N   0  0  0  0  0  0  0  0  0  0  0  0
   47.3600   43.3990  108.7250 C   0  0  0  0  0  0  0  0  0  0  0  0
   47.7970   43.9130  107.5810 N   0  0  0  0  0  0  0  0  0  0  0  0
   46.1120   43.5160  109.0730 N   0  0  0  0  0  0  0  0  0  0  0  0
   53.6190   40.1443  110.5740 H   0  0  0  0  0  0  0  0  0  0  0  0
   50.7490   43.4389  110.5351 H   0  0  0  0  0  0  0  0  0  0  0  0
   49.9767   42.8916  108.1789 H   0  0  0  0  0  0  0  0  0  0  0  0
   49.1912   40.2522  109.1298 H   0  0  0  0  0  0  0  0  0  0  0  0
   49.3705   41.5438  106.2661 H   0  0  0  0  0  0  0  0  0  0  0  0
   45.9069   40.8458  105.6338 H   0  0  0  0  0  0  0  0  0  0  0  0
   47.4623   41.4162  104.9394 H   0  0  0  0  0  0  0  0  0  0  0  0
   47.0678   39.6638  104.9394 H   0  0  0  0  0  0  0  0  0  0  0  0
   51.3240   40.9222  107.2834 H   0  0  0  0  0  0  0  0  0  0  0  0
   50.2624   38.7083  107.0030 H   0  0  0  0  0  0  0  0  0  0  0  0
   50.7738   38.5907  109.7635 H   0  0  0  0  0  0  0  0  0  0  0  0
   52.8479   38.1361  108.4409 H   0  0  0  0  0  0  0  0  0  0  0  0
   53.3646   40.0317  107.4618 H   0  0  0  0  0  0  0  0  0  0  0  0
   53.4582   36.8494  106.5411 H   0  0  0  0  0  0  0  0  0  0  0  0
   51.8161   36.3762  107.3095 H   0  0  0  0  0  0  0  0  0  0  0  0
   50.7969   36.9293  105.5663 H   0  0  0  0  0  0  0  0  0  0  0  0
   47.1902   44.5391  107.0326 H   0  0  0  0  0  0  0  0  0  0  0  0
   48.7427   43.6855  107.2422 H   0  0  0  0  0  0  0  0  0  0  0  0
   45.4851   44.1366  108.5413 H   0  0  0  0  0  0  0  0  0  0  0  0
   45.7508   42.9880  109.8803 H   0  0  0  0  0  0  0  0  0  0  0  0
  1  2  1  0
  1  3  2  0
  1  4  1  0
  4  5  2  0
  5  6  1  0
  6  7  1  0
  7  8  1  0
  8  9  1  0
  9 10  2  0
  9 11  1  0
  7 12  1  0
  4 13  1  0
 12 13  1  0
 12 14  1  0
 14 15  1  0
 14 16  1  0
 16 17  1  0
 16 18  1  0
 18 19  1  0
  6 20  1  0
 20 21  2  3
 21 22  1  0
 21 23  1  0
  2 24  1  0
  5 25  1  0
  6 26  1  6
  7 27  1  1
  8 28  1  0
 11 29  1  0
 11 30  1  0
 11 31  1  0
 12 32  1  6
 14 33  1  6
 15 34  1  0
 16 35  1  1
 17 36  1  0
 18 37  1  0
 18 38  1  0
 19 39  1  0
 22 40  1  0
 22 41  1  0
 23 42  1  0
 23 43  1  0
M  END
$$$$
