PDB_DB01229_91
     RDKit          3D

113119  0  0  0  0  0  0  0  0999 V2000
  -25.5110  -34.2000   55.5290 O   0  0  0  0  0  0  0  0  0  0  0  0
  -25.3010  -33.9270   56.9260 C   0  0  1  0  0  0  0  0  0  0  0  0
  -24.5420  -32.4850   56.9960 C   0  0  1  0  0  0  0  0  0  0  0  0
  -25.5220  -31.5930   56.3360 O   0  0  0  0  0  0  0  0  0  0  0  0
  -25.2220  -31.1060   55.0430 C   0  0  0  0  0  0  0  0  0  0  0  0
  -24.1940  -31.3470   54.4570 O   0  0  0  0  0  0  0  0  0  0  0  0
  -26.2630  -30.2650   54.5110 C   0  0  0  0  0  0  0  0  0  0  0  0
  -26.9360  -29.2090   55.1390 C   0  0  0  0  0  0  0  0  0  0  0  0
  -27.9320  -28.5170   54.4000 C   0  0  0  0  0  0  0  0  0  0  0  0
  -28.2930  -28.7350   53.2200 C   0  0  0  0  0  0  0  0  0  0  0  0
  -27.6630  -29.7930   52.5060 C   0  0  0  0  0  0  0  0  0  0  0  0
  -26.5910  -30.6270   53.1320 C   0  0  0  0  0  0  0  0  0  0  0  0
  -24.1990  -31.8480   58.4480 C   0  0  2  0  0  0  0  0  0  0  0  0
  -24.5470  -30.2810   58.5870 C   0  0  2  0  0  0  0  0  0  0  0  0
  -26.0030  -30.0130   58.4460 O   0  0  0  0  0  0  0  0  0  0  0  0
  -26.9190  -30.4280   59.3840 C   0  0  0  0  0  0  0  0  0  0  0  0
  -26.6630  -31.0340   60.3820 O   0  0  0  0  0  0  0  0  0  0  0  0
  -28.3030  -29.9890   58.9570 C   0  0  0  0  0  0  0  0  0  0  0  0
  -23.9380  -29.2630   57.5890 C   0  0  0  0  0  0  0  0  0  0  0  0
  -23.3180  -28.4870   58.6390 O   0  0  0  0  0  0  0  0  0  0  0  0
  -23.8460  -29.3800   59.6430 C   0  0  2  0  0  0  0  0  0  0  0  0
  -22.7170  -30.0080   60.5260 C   0  0  0  0  0  0  0  0  0  0  0  0
  -22.6710  -31.5290   60.4830 C   0  0  2  0  0  0  0  0  0  0  0  0
  -21.5640  -31.9990   61.2960 O   0  0  0  0  0  0  0  0  0  0  0  0
  -22.6260  -32.1210   58.9920 C   0  0  2  0  0  0  0  0  0  0  0  0
  -21.5330  -31.3680   58.1740 C   0  0  0  0  0  0  0  0  0  0  0  0
  -22.0770  -33.6470   59.0210 C   0  0  0  0  0  0  0  0  0  0  0  0
  -21.0100  -33.8980   58.4860 O   0  0  0  0  0  0  0  0  0  0  0  0
  -22.8620  -34.7880   59.6820 C   0  0  2  0  0  0  0  0  0  0  0  0
  -22.0780  -36.0420   59.5000 O   0  0  0  0  0  0  0  0  0  0  0  0
  -21.5070  -36.6670   60.5910 C   0  0  0  0  0  0  0  0  0  0  0  0
  -21.5820  -36.2880   61.7190 O   0  0  0  0  0  0  0  0  0  0  0  0
  -20.7640  -37.9010   60.1600 C   0  0  0  0  0  0  0  0  0  0  0  0
  -24.2600  -34.9000   59.0680 C   0  0  0  0  0  0  0  0  0  0  0  0
  -25.3780  -34.6550   59.8600 C   0  0  0  0  0  0  0  0  0  0  0  0
  -26.7520  -34.6300   59.1220 C   0  0  1  0  0  0  0  0  0  0  0  0
  -27.8410  -34.0170   59.8980 O   0  0  0  0  0  0  0  0  0  0  0  0
  -28.6110  -34.8170   60.6220 C   0  0  0  0  0  0  0  0  0  0  0  0
  -28.5250  -36.0010   60.7340 O   0  0  0  0  0  0  0  0  0  0  0  0
  -29.7140  -33.9940   61.3370 C   0  0  2  0  0  0  0  0  0  0  0  0
  -30.5320  -34.8960   62.0590 O   0  0  0  0  0  0  0  0  0  0  0  0
  -30.4970  -33.1960   60.2650 C   0  0  1  0  0  0  0  0  0  0  0  0
  -30.9210  -34.1530   59.2480 N   0  0  0  0  0  0  0  0  0  0  0  0
  -31.1510  -33.8080   57.9600 C   0  0  0  0  0  0  0  0  0  0  0  0
  -31.0390  -32.6600   57.5420 O   0  0  0  0  0  0  0  0  0  0  0  0
  -31.5230  -34.9510   57.0830 C   0  0  0  0  0  0  0  0  0  0  0  0
  -32.6520  -35.7470   57.2800 C   0  0  0  0  0  0  0  0  0  0  0  0
  -32.9460  -36.8310   56.4120 C   0  0  0  0  0  0  0  0  0  0  0  0
  -32.0730  -37.1160   55.3250 C   0  0  0  0  0  0  0  0  0  0  0  0
  -30.9490  -36.3330   55.1220 C   0  0  0  0  0  0  0  0  0  0  0  0
  -30.6510  -35.2630   55.9720 C   0  0  0  0  0  0  0  0  0  0  0  0
  -31.6500  -32.3880   60.8950 C   0  0  0  0  0  0  0  0  0  0  0  0
  -31.3900  -31.0610   61.2810 C   0  0  0  0  0  0  0  0  0  0  0  0
  -32.4060  -30.2660   61.8730 C   0  0  0  0  0  0  0  0  0  0  0  0
  -33.6870  -30.8080   62.0730 C   0  0  0  0  0  0  0  0  0  0  0  0
  -33.9500  -32.1120   61.6930 C   0  0  0  0  0  0  0  0  0  0  0  0
  -32.9340  -32.9180   61.0990 C   0  0  0  0  0  0  0  0  0  0  0  0
  -26.6620  -33.8240   57.7690 C   0  0  0  0  0  0  0  0  0  0  0  0
  -25.3730  -34.3180   61.3460 C   0  0  0  0  0  0  0  0  0  0  0  0
  -24.4230  -35.2130   57.5010 C   0  0  0  0  0  0  0  0  0  0  0  0
  -25.1820  -36.6080   57.3310 C   0  0  0  0  0  0  0  0  0  0  0  0
  -23.1510  -35.4160   56.6470 C   0  0  0  0  0  0  0  0  0  0  0  0
  -26.1117  -34.9809   55.4320 H   0  0  0  0  0  0  0  0  0  0  0  0
  -23.5426  -32.6062   56.5526 H   0  0  0  0  0  0  0  0  0  0  0  0
  -26.6998  -28.9239   56.1748 H   0  0  0  0  0  0  0  0  0  0  0  0
  -28.4449  -27.6963   54.9229 H   0  0  0  0  0  0  0  0  0  0  0  0
  -29.0768  -28.1243   52.7480 H   0  0  0  0  0  0  0  0  0  0  0  0
  -27.9714  -30.0018   51.4710 H   0  0  0  0  0  0  0  0  0  0  0  0
  -26.0891  -31.4473   52.5981 H   0  0  0  0  0  0  0  0  0  0  0  0
  -24.8797  -32.4113   59.1032 H   0  0  0  0  0  0  0  0  0  0  0  0
  -28.9172  -29.7942   59.8485 H   0  0  0  0  0  0  0  0  0  0  0  0
  -28.2273  -29.0708   58.3561 H   0  0  0  0  0  0  0  0  0  0  0  0
  -28.7704  -30.7830   58.3561 H   0  0  0  0  0  0  0  0  0  0  0  0
  -23.2147  -29.7128   56.8929 H   0  0  0  0  0  0  0  0  0  0  0  0
  -24.6061  -28.7538   56.8788 H   0  0  0  0  0  0  0  0  0  0  0  0
  -24.4870  -29.0152   60.4591 H   0  0  0  0  0  0  0  0  0  0  0  0
  -21.7485  -29.6226   60.1747 H   0  0  0  0  0  0  0  0  0  0  0  0
  -22.9330  -29.7255   61.5669 H   0  0  0  0  0  0  0  0  0  0  0  0
  -23.6131  -31.9087   60.9052 H   0  0  0  0  0  0  0  0  0  0  0  0
  -21.7935  -31.9016   62.2541 H   0  0  0  0  0  0  0  0  0  0  0  0
  -20.8279  -30.8822   58.8645 H   0  0  0  0  0  0  0  0  0  0  0  0
  -20.9904  -32.0849   57.5402 H   0  0  0  0  0  0  0  0  0  0  0  0
  -22.0095  -30.6056   57.5402 H   0  0  0  0  0  0  0  0  0  0  0  0
  -23.0022  -34.5953   60.7559 H   0  0  0  0  0  0  0  0  0  0  0  0
  -20.4295  -38.4566   61.0485 H   0  0  0  0  0  0  0  0  0  0  0  0
  -21.4289  -38.5379   59.5581 H   0  0  0  0  0  0  0  0  0  0  0  0
  -19.8900  -37.6113   59.5581 H   0  0  0  0  0  0  0  0  0  0  0  0
  -26.9823  -35.6926   58.9554 H   0  0  0  0  0  0  0  0  0  0  0  0
  -29.3001  -33.2681   62.0523 H   0  0  0  0  0  0  0  0  0  0  0  0
  -30.4029  -34.7536   63.0302 H   0  0  0  0  0  0  0  0  0  0  0  0
  -29.8673  -32.4308   59.7876 H   0  0  0  0  0  0  0  0  0  0  0  0
  -31.0512  -35.1369   59.5235 H   0  0  0  0  0  0  0  0  0  0  0  0
  -33.3257  -35.5308   58.1223 H   0  0  0  0  0  0  0  0  0  0  0  0
  -33.8424  -37.4464   56.5785 H   0  0  0  0  0  0  0  0  0  0  0  0
  -32.2903  -37.9555   54.6482 H   0  0  0  0  0  0  0  0  0  0  0  0
  -30.2795  -36.5563   54.2783 H   0  0  0  0  0  0  0  0  0  0  0  0
  -29.7504  -34.6567   55.7950 H   0  0  0  0  0  0  0  0  0  0  0  0
  -30.3885  -30.6345   61.1225 H   0  0  0  0  0  0  0  0  0  0  0  0
  -32.1915  -29.2299   62.1740 H   0  0  0  0  0  0  0  0  0  0  0  0
  -34.4788  -30.1968   62.5307 H   0  0  0  0  0  0  0  0  0  0  0  0
  -34.9543  -32.5322   61.8508 H   0  0  0  0  0  0  0  0  0  0  0  0
  -33.1562  -33.9533   60.8012 H   0  0  0  0  0  0  0  0  0  0  0  0
  -26.8199  -32.7621   58.0086 H   0  0  0  0  0  0  0  0  0  0  0  0
  -27.4240  -34.2830   57.1220 H   0  0  0  0  0  0  0  0  0  0  0  0
  -25.3868  -35.2482   61.9330 H   0  0  0  0  0  0  0  0  0  0  0  0
  -24.4662  -33.7446   61.5889 H   0  0  0  0  0  0  0  0  0  0  0  0
  -26.2623  -33.7179   61.5889 H   0  0  0  0  0  0  0  0  0  0  0  0
  -25.4090  -37.0252   58.3232 H   0  0  0  0  0  0  0  0  0  0  0  0
  -26.1188  -36.4505   56.7764 H   0  0  0  0  0  0  0  0  0  0  0  0
  -24.5409  -37.3090   56.7764 H   0  0  0  0  0  0  0  0  0  0  0  0
  -22.2833  -35.5545   57.3088 H   0  0  0  0  0  0  0  0  0  0  0  0
  -23.2737  -36.3059   56.0122 H   0  0  0  0  0  0  0  0  0  0  0  0
  -22.9906  -34.5321   56.0122 H   0  0  0  0  0  0  0  0  0  0  0  0
  2  1  1  6
  2  3  1  0
  3  4  1  0
  4  5  1  0
  5  6  2  0
  5  7  1  0
  7  8  2  0
  8  9  1  0
  9 10  2  0
 10 11  1  0
  7 12  1  0
 11 12  2  0
  3 13  1  0
 13 14  1  0
 14 15  1  1
 15 16  1  0
 16 17  2  0
 16 18  1  0
 14 19  1  0
 19 20  1  0
 14 21  1  0
 20 21  1  0
 21 22  1  0
 22 23  1  0
 23 24  1  0
 13 25  1  0
 23 25  1  0
 25 26  1  6
 25 27  1  0
 27 28  2  0
 27 29  1  0
 29 30  1  0
 30 31  1  0
 31 32  2  0
 31 33  1  0
 29 34  1  0
 34 35  2  0
 35 36  1  0
 36 37  1  0
 37 38  1  0
 38 39  2  0
 38 40  1  0
 40 41  1  0
 40 42  1  0
 42 43  1  0
 43 44  1  0
 44 45  2  0
 44 46  1  0
 46 47  2  0
 47 48  1  0
 48 49  2  0
 49 50  1  0
 46 51  1  0
 50 51  2  0
 42 52  1  0
 52 53  2  0
 53 54  1  0
 54 55  2  0
 55 56  1  0
 52 57  1  0
 56 57  2  0
  2 58  1  0
 36 58  1  0
 35 59  1  0
  2 60  1  0
 34 60  1  0
 60 61  1  0
 60 62  1  0
  1 63  1  0
  3 64  1  6
  8 65  1  0
  9 66  1  0
 10 67  1  0
 11 68  1  0
 12 69  1  0
 13 70  1  1
 18 71  1  0
 18 72  1  0
 18 73  1  0
 19 74  1  0
 19 75  1  0
 21 76  1  1
 22 77  1  0
 22 78  1  0
 23 79  1  1
 24 80  1  0
 26 81  1  0
 26 82  1  0
 26 83  1  0
 29 84  1  1
 33 85  1  0
 33 86  1  0
 33 87  1  0
 36 88  1  6
 40 89  1  1
 41 90  1  0
 42 91  1  6
 43 92  1  0
 47 93  1  0
 48 94  1  0
 49 95  1  0
 50 96  1  0
 51 97  1  0
 53 98  1  0
 54 99  1  0
 55100  1  0
 56101  1  0
 57102  1  0
 58103  1  0
 58104  1  0
 59105  1  0
 59106  1  0
 59107  1  0
 61108  1  0
 61109  1  0
 61110  1  0
 62111  1  0
 62112  1  0
 62113  1  0
M  END
$$$$
