PDB_DB00619_90
     RDKit          3D

 68 72  0  0  0  0  0  0  0  0999 V2000
   26.1890   19.7940   59.0330 C   0  0  0  0  0  0  0  0  0  0  0  0
   25.0280   19.0110   59.1320 C   0  0  0  0  0  0  0  0  0  0  0  0
   24.6620   18.1880   58.0500 C   0  0  0  0  0  0  0  0  0  0  0  0
   25.4500   18.1820   56.8820 C   0  0  0  0  0  0  0  0  0  0  0  0
   26.5600   18.9590   56.8070 N   0  0  0  0  0  0  0  0  0  0  0  0
   26.9360   19.7370   57.8520 C   0  0  0  0  0  0  0  0  0  0  0  0
   23.4400   17.3620   58.1540 C   0  0  0  0  0  0  0  0  0  0  0  0
   22.6960   17.2530   59.3270 C   0  0  0  0  0  0  0  0  0  0  0  0
   21.5440   16.4500   59.3200 C   0  0  0  0  0  0  0  0  0  0  0  0
   21.2200   15.7820   58.2000 N   0  0  0  0  0  0  0  0  0  0  0  0
   21.9570   15.8840   57.0720 C   0  0  0  0  0  0  0  0  0  0  0  0
   23.0700   16.6510   57.0650 N   0  0  0  0  0  0  0  0  0  0  0  0
   21.6160   15.2020   55.9510 N   0  0  0  0  0  0  0  0  0  0  0  0
   20.5770   14.3150   55.8650 C   0  0  0  0  0  0  0  0  0  0  0  0
   20.7090   12.9750   56.2700 C   0  0  0  0  0  0  0  0  0  0  0  0
   19.6170   12.0950   56.1500 C   0  0  0  0  0  0  0  0  0  0  0  0
   18.3950   12.5370   55.6060 C   0  0  0  0  0  0  0  0  0  0  0  0
   18.2460   13.8870   55.2350 C   0  0  0  0  0  0  0  0  0  0  0  0
   19.3440   14.7450   55.3330 C   0  0  0  0  0  0  0  0  0  0  0  0
   17.0170   14.2970   54.6170 N   0  0  0  0  0  0  0  0  0  0  0  0
   16.6790   15.5240   54.1690 C   0  0  0  0  0  0  0  0  0  0  0  0
   15.3690   15.6700   53.4180 C   0  0  0  0  0  0  0  0  0  0  0  0
   15.2050   16.7830   52.5970 C   0  0  0  0  0  0  0  0  0  0  0  0
   14.0260   16.9550   51.8580 C   0  0  0  0  0  0  0  0  0  0  0  0
   13.0340   15.9750   51.9310 C   0  0  0  0  0  0  0  0  0  0  0  0
   13.2040   14.8450   52.7330 C   0  0  0  0  0  0  0  0  0  0  0  0
   14.3830   14.6780   53.4700 C   0  0  0  0  0  0  0  0  0  0  0  0
   11.7370   16.1660   51.1190 C   0  0  0  0  0  0  0  0  0  0  0  0
   10.5380   16.0050   51.9680 N   0  0  0  0  0  0  0  0  0  0  0  0
   10.4590   16.9200   53.1340 C   0  0  0  0  0  0  0  0  0  0  0  0
    9.2430   16.5420   53.9990 C   0  0  0  0  0  0  0  0  0  0  0  0
    8.0140   16.6060   53.1580 N   0  0  0  0  0  0  0  0  0  0  0  0
    6.8060   16.3060   53.9750 C   0  0  0  0  0  0  0  0  0  0  0  0
    8.0770   15.7080   51.9750 C   0  0  0  0  0  0  0  0  0  0  0  0
    9.3140   16.0470   51.1090 C   0  0  0  0  0  0  0  0  0  0  0  0
   17.3270   16.5300   54.3770 O   0  0  0  0  0  0  0  0  0  0  0  0
   22.0460   12.4840   56.8480 C   0  0  0  0  0  0  0  0  0  0  0  0
   26.5045   20.4387   59.8666 H   0  0  0  0  0  0  0  0  0  0  0  0
   24.4123   19.0401   60.0431 H   0  0  0  0  0  0  0  0  0  0  0  0
   25.1652   17.5469   56.0302 H   0  0  0  0  0  0  0  0  0  0  0  0
   27.8527   20.3392   57.7687 H   0  0  0  0  0  0  0  0  0  0  0  0
   23.0045   17.7847   60.2392 H   0  0  0  0  0  0  0  0  0  0  0  0
   20.9154   16.3689   60.2191 H   0  0  0  0  0  0  0  0  0  0  0  0
   22.1789   15.3628   55.1036 H   0  0  0  0  0  0  0  0  0  0  0  0
   19.7188   11.0520   56.4843 H   0  0  0  0  0  0  0  0  0  0  0  0
   17.5619   11.8314   55.4718 H   0  0  0  0  0  0  0  0  0  0  0  0
   19.2440   15.7840   54.9858 H   0  0  0  0  0  0  0  0  0  0  0  0
   16.3040   13.5627   54.5011 H   0  0  0  0  0  0  0  0  0  0  0  0
   16.0067   17.5330   52.5278 H   0  0  0  0  0  0  0  0  0  0  0  0
   13.8847   17.8476   51.2308 H   0  0  0  0  0  0  0  0  0  0  0  0
   12.4108   14.0848   52.7861 H   0  0  0  0  0  0  0  0  0  0  0  0
   14.5325   13.7770   54.0831 H   0  0  0  0  0  0  0  0  0  0  0  0
   11.7335   17.1760   50.6833 H   0  0  0  0  0  0  0  0  0  0  0  0
   11.7072   15.3994   50.3306 H   0  0  0  0  0  0  0  0  0  0  0  0
   11.3773   16.8313   53.7330 H   0  0  0  0  0  0  0  0  0  0  0  0
   10.3511   17.9563   52.7812 H   0  0  0  0  0  0  0  0  0  0  0  0
    9.3705   15.5216   54.3896 H   0  0  0  0  0  0  0  0  0  0  0  0
    9.1540   17.2417   54.8431 H   0  0  0  0  0  0  0  0  0  0  0  0
    7.0608   16.3693   55.0432 H   0  0  0  0  0  0  0  0  0  0  0  0
    6.0159   17.0352   53.7427 H   0  0  0  0  0  0  0  0  0  0  0  0
    6.4488   15.2919   53.7427 H   0  0  0  0  0  0  0  0  0  0  0  0
    8.1470   14.6642   52.3150 H   0  0  0  0  0  0  0  0  0  0  0  0
    7.1682   15.8473   51.3711 H   0  0  0  0  0  0  0  0  0  0  0  0
    9.1991   17.0534   50.6802 H   0  0  0  0  0  0  0  0  0  0  0  0
    9.4078   15.3149   50.2934 H   0  0  0  0  0  0  0  0  0  0  0  0
   21.9989   12.5013   57.9469 H   0  0  0  0  0  0  0  0  0  0  0  0
   22.2384   11.4566   56.5054 H   0  0  0  0  0  0  0  0  0  0  0  0
   22.8576   13.1427   56.5054 H   0  0  0  0  0  0  0  0  0  0  0  0
  1  2  2  0
  2  3  1  0
  3  4  2  0
  4  5  1  0
  1  6  1  0
  5  6  2  0
  3  7  1  0
  7  8  2  0
  8  9  1  0
  9 10  2  0
 10 11  1  0
  7 12  1  0
 11 12  2  0
 11 13  1  0
 13 14  1  0
 14 15  2  0
 15 16  1  0
 16 17  2  0
 17 18  1  0
 14 19  1  0
 18 19  2  0
 18 20  1  0
 20 21  1  0
 21 22  1  0
 22 23  2  0
 23 24  1  0
 24 25  2  0
 25 26  1  0
 22 27  1  0
 26 27  2  0
 25 28  1  0
 28 29  1  0
 29 30  1  0
 30 31  1  0
 31 32  1  0
 32 33  1  0
 32 34  1  0
 29 35  1  0
 34 35  1  0
 21 36  2  0
 15 37  1  0
  1 38  1  0
  2 39  1  0
  4 40  1  0
  6 41  1  0
  8 42  1  0
  9 43  1  0
 13 44  1  0
 16 45  1  0
 17 46  1  0
 19 47  1  0
 20 48  1  0
 23 49  1  0
 24 50  1  0
 26 51  1  0
 27 52  1  0
 28 53  1  0
 28 54  1  0
 30 55  1  0
 30 56  1  0
 31 57  1  0
 31 58  1  0
 33 59  1  0
 33 60  1  0
 33 61  1  0
 34 62  1  0
 34 63  1  0
 35 64  1  0
 35 65  1  0
 37 66  1  0
 37 67  1  0
 37 68  1  0
M  END
$$$$
