PDB_DB06616_97
     RDKit          3D

 65 68  0  0  0  0  0  0  0  0999 V2000
   10.6830  -40.3670   -5.6270 C   0  0  0  0  0  0  0  0  0  0  0  0
    7.4200  -35.4650  -12.6170 O   0  0  0  0  0  0  0  0  0  0  0  0
   16.4310  -40.0600   -3.7600 C   0  0  0  0  0  0  0  0  0  0  0  0
    8.5490  -32.8100   -9.3190 N   0  0  0  0  0  0  0  0  0  0  0  0
    4.6420  -34.4180  -11.9310 Cl  0  0  0  0  0  0  0  0  0  0  0  0
    6.2000  -35.3890   -6.6850 Cl  0  0  0  0  0  0  0  0  0  0  0  0
    9.3840  -33.4810   -8.9310 C   0  0  0  0  0  0  0  0  0  0  0  0
   11.8690  -33.8560   -8.3430 C   0  0  0  0  0  0  0  0  0  0  0  0
    5.5090  -34.9400   -9.3440 C   0  0  0  0  0  0  0  0  0  0  0  0
    8.1730  -35.9190  -10.3200 C   0  0  0  0  0  0  0  0  0  0  0  0
   13.8600  -36.7470   -6.6700 C   0  0  0  0  0  0  0  0  0  0  0  0
   11.1210  -37.9580   -6.8020 C   0  0  0  0  0  0  0  0  0  0  0  0
   16.9240  -39.3370   -5.0010 C   0  0  0  0  0  0  0  0  0  0  0  0
   15.9140  -38.2500   -5.3880 C   0  0  0  0  0  0  0  0  0  0  0  0
   21.0490  -40.5570   -0.3430 C   0  0  0  0  0  0  0  0  0  0  0  0
   17.4560  -40.5070   -1.4150 C   0  0  0  0  0  0  0  0  0  0  0  0
   18.7670  -39.5210   -3.1470 C   0  0  0  0  0  0  0  0  0  0  0  0
   18.7270  -41.1750   -0.8600 C   0  0  0  0  0  0  0  0  0  0  0  0
   19.9900  -40.1910   -2.6000 C   0  0  0  0  0  0  0  0  0  0  0  0
   12.9430  -34.6580   -7.8520 N   0  0  0  0  0  0  0  0  0  0  0  0
    8.8470  -36.3470   -7.8950 N   0  0  0  0  0  0  0  0  0  0  0  0
   11.9810  -39.8870   -5.5250 O   0  0  0  0  0  0  0  0  0  0  0  0
   14.6150  -38.7740   -5.3780 O   0  0  0  0  0  0  0  0  0  0  0  0
    7.1390  -35.4450  -11.2830 C   0  0  0  0  0  0  0  0  0  0  0  0
    5.8180  -34.9570  -10.7980 C   0  0  0  0  0  0  0  0  0  0  0  0
    6.5360  -35.4090   -8.3780 C   0  0  0  0  0  0  0  0  0  0  0  0
   10.4700  -34.3750   -8.4260 C   0  0  0  0  0  0  0  0  0  0  0  0
    7.8580  -35.8990   -8.8550 C   0  0  0  0  0  0  0  0  0  0  0  0
   12.2390  -38.6700   -6.1040 C   0  0  0  0  0  0  0  0  0  0  0  0
   13.5930  -38.0830   -6.0360 C   0  0  0  0  0  0  0  0  0  0  0  0
   10.1960  -35.7920   -7.9680 C   0  0  0  0  0  0  0  0  0  0  0  0
   12.7470  -36.0100   -7.4030 C   0  0  0  0  0  0  0  0  0  0  0  0
   11.3700  -36.6270   -7.4550 C   0  0  0  0  0  0  0  0  0  0  0  0
   17.6010  -40.3220   -2.8600 N   0  0  0  0  0  0  0  0  0  0  0  0
   19.8710  -40.3650   -1.1810 N   0  0  0  0  0  0  0  0  0  0  0  0
    8.7290  -35.7670  -12.9630 C   0  0  0  0  0  0  0  0  0  0  0  0
   10.2685  -40.5203   -4.6197 H   0  0  0  0  0  0  0  0  0  0  0  0
   10.0643  -39.6382   -6.1711 H   0  0  0  0  0  0  0  0  0  0  0  0
   10.6873  -41.3230   -6.1711 H   0  0  0  0  0  0  0  0  0  0  0  0
   15.6934  -39.4346   -3.2357 H   0  0  0  0  0  0  0  0  0  0  0  0
   15.9561  -41.0107   -4.0438 H   0  0  0  0  0  0  0  0  0  0  0  0
   12.0771  -32.8264   -8.6696 H   0  0  0  0  0  0  0  0  0  0  0  0
    4.5311  -34.5843   -8.9873 H   0  0  0  0  0  0  0  0  0  0  0  0
    9.1496  -36.2770  -10.6780 H   0  0  0  0  0  0  0  0  0  0  0  0
   14.8629  -36.2998   -6.6044 H   0  0  0  0  0  0  0  0  0  0  0  0
   10.1183  -38.4089   -6.8367 H   0  0  0  0  0  0  0  0  0  0  0  0
   17.9003  -38.8746   -4.7936 H   0  0  0  0  0  0  0  0  0  0  0  0
   17.0292  -40.0542   -5.8284 H   0  0  0  0  0  0  0  0  0  0  0  0
   15.9775  -37.4213   -4.6675 H   0  0  0  0  0  0  0  0  0  0  0  0
   16.1473  -37.8856   -6.3993 H   0  0  0  0  0  0  0  0  0  0  0  0
   20.7570  -40.5094    0.7165 H   0  0  0  0  0  0  0  0  0  0  0  0
   21.4948  -41.5397   -0.5567 H   0  0  0  0  0  0  0  0  0  0  0  0
   21.7837  -39.7668   -0.5567 H   0  0  0  0  0  0  0  0  0  0  0  0
   16.5851  -41.1474   -1.2117 H   0  0  0  0  0  0  0  0  0  0  0  0
   17.3101  -39.5304   -0.9303 H   0  0  0  0  0  0  0  0  0  0  0  0
   18.6537  -38.5310   -2.6811 H   0  0  0  0  0  0  0  0  0  0  0  0
   18.8711  -39.4083   -4.2362 H   0  0  0  0  0  0  0  0  0  0  0  0
   18.6424  -41.2743    0.2322 H   0  0  0  0  0  0  0  0  0  0  0  0
   18.8446  -42.1719   -1.3098 H   0  0  0  0  0  0  0  0  0  0  0  0
   20.1087  -41.1749   -3.0774 H   0  0  0  0  0  0  0  0  0  0  0  0
   20.8669  -39.5612   -2.8105 H   0  0  0  0  0  0  0  0  0  0  0  0
    8.6034  -37.0428   -7.1757 H   0  0  0  0  0  0  0  0  0  0  0  0
    9.3270  -35.9050  -12.0501 H   0  0  0  0  0  0  0  0  0  0  0  0
    8.7471  -36.6929  -13.5566 H   0  0  0  0  0  0  0  0  0  0  0  0
    9.1509  -34.9426  -13.5566 H   0  0  0  0  0  0  0  0  0  0  0  0
  4  7  3  0
  3 13  1  0
 13 14  1  0
 16 18  1  0
 17 19  1  0
  8 20  2  0
  1 22  1  0
 14 23  1  0
  2 24  1  0
 10 24  2  0
  5 25  1  0
  9 25  2  0
 24 25  1  0
  6 26  1  0
  9 26  1  0
  7 27  1  0
  8 27  1  0
 10 28  1  0
 21 28  1  0
 26 28  2  0
 12 29  1  0
 22 29  1  0
 11 30  1  0
 23 30  1  0
 29 30  2  0
 21 31  1  0
 27 31  2  0
 11 32  2  0
 20 32  1  0
 12 33  2  0
 31 33  1  0
 32 33  1  0
  3 34  1  0
 16 34  1  0
 17 34  1  0
 15 35  1  0
 18 35  1  0
 19 35  1  0
  2 36  1  0
  1 37  1  0
  1 38  1  0
  1 39  1  0
  3 40  1  0
  3 41  1  0
  8 42  1  0
  9 43  1  0
 10 44  1  0
 11 45  1  0
 12 46  1  0
 13 47  1  0
 13 48  1  0
 14 49  1  0
 14 50  1  0
 15 51  1  0
 15 52  1  0
 15 53  1  0
 16 54  1  0
 16 55  1  0
 17 56  1  0
 17 57  1  0
 18 58  1  0
 18 59  1  0
 19 60  1  0
 19 61  1  0
 21 62  1  0
 36 63  1  0
 36 64  1  0
 36 65  1  0
M  END
$$$$
