PDB_DB01283_93
     RDKit          3D

 33 34  0  0  0  0  0  0  0  0999 V2000
  -75.5610  -24.3810   59.2990 O   0  0  0  0  0  0  0  0  0  0  0  0
  -75.5820  -25.1120   60.2750 C   0  0  0  0  0  0  0  0  0  0  0  0
  -76.6680  -25.8410   60.5250 O   0  0  0  0  0  0  0  0  0  0  0  0
  -74.3790  -25.1870   61.1850 C   0  0  0  0  0  0  0  0  0  0  0  0
  -73.2530  -25.8520   60.4380 C   0  0  0  0  0  0  0  0  0  0  0  0
  -72.9910  -27.1990   60.6330 C   0  0  0  0  0  0  0  0  0  0  0  0
  -71.9520  -27.8040   59.9350 C   0  0  0  0  0  0  0  0  0  0  0  0
  -71.6710  -29.2680   60.1520 C   0  0  0  0  0  0  0  0  0  0  0  0
  -71.1700  -27.0730   59.0420 C   0  0  0  0  0  0  0  0  0  0  0  0
  -71.3990  -25.7200   58.8110 C   0  0  0  0  0  0  0  0  0  0  0  0
  -72.4260  -25.0720   59.4840 C   0  0  0  0  0  0  0  0  0  0  0  0
  -72.6870  -23.7590   59.2960 N   0  0  0  0  0  0  0  0  0  0  0  0
  -71.9170  -22.9540   58.5280 C   0  0  0  0  0  0  0  0  0  0  0  0
  -72.4740  -22.3370   57.3040 C   0  0  0  0  0  0  0  0  0  0  0  0
  -74.1690  -22.6700   56.8250 Cl  0  0  0  0  0  0  0  0  0  0  0  0
  -71.6710  -21.5040   56.5370 C   0  0  0  0  0  0  0  0  0  0  0  0
  -70.3560  -21.2430   56.9080 C   0  0  0  0  0  0  0  0  0  0  0  0
  -69.7870  -21.7920   58.0550 C   0  0  0  0  0  0  0  0  0  0  0  0
  -70.5140  -22.6350   58.8840 C   0  0  0  0  0  0  0  0  0  0  0  0
  -69.9490  -23.1640   59.9860 F   0  0  0  0  0  0  0  0  0  0  0  0
  -76.6931  -26.4369   61.3152 H   0  0  0  0  0  0  0  0  0  0  0  0
  -74.0770  -24.1726   61.4846 H   0  0  0  0  0  0  0  0  0  0  0  0
  -74.6254  -25.7661   62.0872 H   0  0  0  0  0  0  0  0  0  0  0  0
  -73.6012  -27.7856   61.3355 H   0  0  0  0  0  0  0  0  0  0  0  0
  -71.6308  -29.4776   61.2311 H   0  0  0  0  0  0  0  0  0  0  0  0
  -72.4706  -29.8670   59.6917 H   0  0  0  0  0  0  0  0  0  0  0  0
  -70.7065  -29.5284   59.6917 H   0  0  0  0  0  0  0  0  0  0  0  0
  -70.3522  -27.5779   58.5070 H   0  0  0  0  0  0  0  0  0  0  0  0
  -70.7694  -25.1666   58.0987 H   0  0  0  0  0  0  0  0  0  0  0  0
  -73.5117  -23.3518   59.7597 H   0  0  0  0  0  0  0  0  0  0  0  0
  -72.0795  -21.0447   55.6248 H   0  0  0  0  0  0  0  0  0  0  0  0
  -69.7457  -20.5818   56.2753 H   0  0  0  0  0  0  0  0  0  0  0  0
  -68.7435  -21.5532   58.3080 H   0  0  0  0  0  0  0  0  0  0  0  0
  1  2  2  0
  2  3  1  0
  2  4  1  0
  4  5  1  0
  5  6  2  0
  6  7  1  0
  7  8  1  0
  7  9  2  0
  9 10  1  0
  5 11  1  0
 10 11  2  0
 11 12  1  0
 12 13  1  0
 13 14  2  0
 14 15  1  0
 14 16  1  0
 16 17  2  0
 17 18  1  0
 13 19  1  0
 18 19  2  0
 19 20  1  0
  3 21  1  0
  4 22  1  0
  4 23  1  0
  6 24  1  0
  8 25  1  0
  8 26  1  0
  8 27  1  0
  9 28  1  0
 10 29  1  0
 12 30  1  0
 16 31  1  0
 17 32  1  0
 18 33  1  0
M  END
$$$$
