PDB_DB00834_90
     RDKit          3D

 67 71  0  0  0  0  0  0  0  0999 V2000
  -18.0110   34.3380   -3.8070 O   0  0  0  0  0  0  0  0  0  0  0  0
  -18.5100   33.3350   -4.2860 C   0  0  0  0  0  0  0  0  0  0  0  0
  -19.9840   33.3410   -4.6060 C   0  0  0  0  0  0  0  0  0  0  0  0
  -17.6880   32.2200   -4.5040 C   0  0  0  0  0  0  0  0  0  0  0  0
  -18.1960   31.0880   -5.0160 C   0  0  0  0  0  0  0  0  0  0  0  0
  -17.3290   29.8890   -5.2810 C   0  0  0  0  0  0  0  0  0  0  0  0
  -19.6080   30.9940   -5.3830 C   0  0  0  0  0  0  0  0  0  0  0  0
  -20.3940   32.2640   -5.6160 C   0  0  0  0  0  0  0  0  0  0  0  0
  -20.1870   29.8140   -5.5560 C   0  0  0  0  0  0  0  0  0  0  0  0
  -21.6430   29.8000   -5.9700 C   0  0  1  0  0  0  0  0  0  0  0  0
  -21.7220   29.8690   -7.4820 C   0  0  0  0  0  0  0  0  0  0  0  0
  -22.9570   29.9700   -8.1040 C   0  0  0  0  0  0  0  0  0  0  0  0
  -23.0470   30.0460   -9.4850 C   0  0  0  0  0  0  0  0  0  0  0  0
  -21.8980   30.0220  -10.2620 C   0  0  0  0  0  0  0  0  0  0  0  0
  -22.0050   30.1070  -11.6470 N   0  0  0  0  0  0  0  0  0  0  0  0
  -23.3260   30.2270  -12.2800 C   0  0  0  0  0  0  0  0  0  0  0  0
  -20.7900   30.0850  -12.4540 C   0  0  0  0  0  0  0  0  0  0  0  0
  -20.6600   29.9230   -9.6530 C   0  0  0  0  0  0  0  0  0  0  0  0
  -20.5770   29.8470   -8.2680 C   0  0  0  0  0  0  0  0  0  0  0  0
  -22.4350   28.5890   -5.4470 C   0  0  0  0  0  0  0  0  0  0  0  0
  -21.5750   27.3550   -5.2690 C   0  0  2  0  0  0  0  0  0  0  0  0
  -21.2200   26.7010   -6.5990 C   0  0  0  0  0  0  0  0  0  0  0  0
  -22.1500   26.2980   -4.3510 C   0  0  1  0  0  0  0  0  0  0  0  0
  -22.3910   26.7970   -2.9810 C   0  0  0  0  0  0  0  0  0  0  0  0
  -22.5270   27.2040   -1.8780 C   0  0  0  0  0  0  0  0  0  0  0  0
  -22.6700   27.6240   -0.4630 C   0  0  0  0  0  0  0  0  0  0  0  0
  -23.3540   25.7540   -4.9050 O   0  0  0  0  0  0  0  0  0  0  0  0
  -20.9480   25.3280   -4.3410 C   0  0  0  0  0  0  0  0  0  0  0  0
  -19.7100   26.2590   -4.2490 C   0  0  0  0  0  0  0  0  0  0  0  0
  -20.2940   27.6610   -4.4690 C   0  0  1  0  0  0  0  0  0  0  0  0
  -19.4380   28.5340   -5.3550 C   0  0  2  0  0  0  0  0  0  0  0  0
  -18.0790   28.7010   -4.7040 C   0  0  0  0  0  0  0  0  0  0  0  0
  -20.5435   33.1751   -3.6736 H   0  0  0  0  0  0  0  0  0  0  0  0
  -20.2125   34.3158   -5.0615 H   0  0  0  0  0  0  0  0  0  0  0  0
  -16.6183   32.2735   -4.2534 H   0  0  0  0  0  0  0  0  0  0  0  0
  -17.1770   29.7576   -6.3625 H   0  0  0  0  0  0  0  0  0  0  0  0
  -16.3340   30.0000   -4.8254 H   0  0  0  0  0  0  0  0  0  0  0  0
  -21.4673   32.0514   -5.5030 H   0  0  0  0  0  0  0  0  0  0  0  0
  -20.1852   32.6306   -6.6319 H   0  0  0  0  0  0  0  0  0  0  0  0
  -22.1171   30.6790   -5.5088 H   0  0  0  0  0  0  0  0  0  0  0  0
  -23.8735   29.9900   -7.4961 H   0  0  0  0  0  0  0  0  0  0  0  0
  -24.0328   30.1256   -9.9665 H   0  0  0  0  0  0  0  0  0  0  0  0
  -24.1004   30.2973  -11.5019 H   0  0  0  0  0  0  0  0  0  0  0  0
  -23.3519   31.1312  -12.9059 H   0  0  0  0  0  0  0  0  0  0  0  0
  -23.5144   29.3423  -12.9059 H   0  0  0  0  0  0  0  0  0  0  0  0
  -19.9110   30.0691  -11.7929 H   0  0  0  0  0  0  0  0  0  0  0  0
  -20.7877   29.1867  -13.0888 H   0  0  0  0  0  0  0  0  0  0  0  0
  -20.7552   30.9827  -13.0888 H   0  0  0  0  0  0  0  0  0  0  0  0
  -19.7447   29.9045  -10.2628 H   0  0  0  0  0  0  0  0  0  0  0  0
  -19.5907   29.7683   -7.7873 H   0  0  0  0  0  0  0  0  0  0  0  0
  -22.8771   28.8520   -4.4747 H   0  0  0  0  0  0  0  0  0  0  0  0
  -23.2050   28.3498   -6.1953 H   0  0  0  0  0  0  0  0  0  0  0  0
  -20.7028   25.7482   -6.4126 H   0  0  0  0  0  0  0  0  0  0  0  0
  -22.1398   26.5129   -7.1722 H   0  0  0  0  0  0  0  0  0  0  0  0
  -20.5611   27.3698   -7.1722 H   0  0  0  0  0  0  0  0  0  0  0  0
  -22.3864   26.7911    0.1972 H   0  0  0  0  0  0  0  0  0  0  0  0
  -22.0146   28.4857   -0.2683 H   0  0  0  0  0  0  0  0  0  0  0  0
  -23.7150   27.9068   -0.2683 H   0  0  0  0  0  0  0  0  0  0  0  0
  -23.9603   25.4801   -4.1718 H   0  0  0  0  0  0  0  0  0  0  0  0
  -20.9962   24.6556   -3.4718 H   0  0  0  0  0  0  0  0  0  0  0  0
  -20.9225   24.6787   -5.2286 H   0  0  0  0  0  0  0  0  0  0  0  0
  -19.2341   26.1827   -3.2602 H   0  0  0  0  0  0  0  0  0  0  0  0
  -18.9281   26.0029   -4.9790 H   0  0  0  0  0  0  0  0  0  0  0  0
  -20.4095   28.1917   -3.5124 H   0  0  0  0  0  0  0  0  0  0  0  0
  -19.2457   28.0985   -6.3467 H   0  0  0  0  0  0  0  0  0  0  0  0
  -17.4875   27.7889   -4.8718 H   0  0  0  0  0  0  0  0  0  0  0  0
  -18.2301   28.8767   -3.6287 H   0  0  0  0  0  0  0  0  0  0  0  0
  1  2  2  0
  2  3  1  0
  2  4  1  0
  4  5  2  0
  5  6  1  0
  5  7  1  0
  3  8  1  0
  7  8  1  0
  7  9  2  0
  9 10  1  0
 10 11  1  0
 11 12  2  0
 12 13  1  0
 13 14  2  0
 14 15  1  0
 15 16  1  0
 15 17  1  0
 14 18  1  0
 11 19  1  0
 18 19  2  0
 10 20  1  0
 20 21  1  0
 21 22  1  6
 21 23  1  0
 23 24  1  1
 24 25  3  0
 25 26  1  0
 23 27  1  0
 23 28  1  0
 28 29  1  0
 21 30  1  0
 29 30  1  0
  9 31  1  0
 30 31  1  0
  6 32  1  0
 31 32  1  0
  3 33  1  0
  3 34  1  0
  4 35  1  0
  6 36  1  0
  6 37  1  0
  8 38  1  0
  8 39  1  0
 10 40  1  1
 12 41  1  0
 13 42  1  0
 16 43  1  0
 16 44  1  0
 16 45  1  0
 17 46  1  0
 17 47  1  0
 17 48  1  0
 18 49  1  0
 19 50  1  0
 20 51  1  0
 20 52  1  0
 22 53  1  0
 22 54  1  0
 22 55  1  0
 26 56  1  0
 26 57  1  0
 26 58  1  0
 27 59  1  0
 28 60  1  0
 28 61  1  0
 29 62  1  0
 29 63  1  0
 30 64  1  1
 31 65  1  6
 32 66  1  0
 32 67  1  0
M  END
$$$$
