PDB_DB01024_95
     RDKit          3D

 43 44  0  0  0  0  0  0  0  0999 V2000
   -0.2390   35.1770   15.0950 C   0  0  0  0  0  0  0  0  0  0  0  0
   -1.6690   30.6600   11.7130 C   0  0  0  0  0  0  0  0  0  0  0  0
   -1.7900   29.3920   11.2280 C   0  0  0  0  0  0  0  0  0  0  0  0
   -3.0260   28.5430   11.4540 C   0  0  0  0  0  0  0  0  0  0  0  0
   -2.7870   27.4540   12.5090 C   0  0  0  0  0  0  0  0  0  0  0  0
   -2.8520   28.1450   13.8500 C   0  0  0  0  0  0  0  0  0  0  0  0
    3.2550   31.6860   15.1590 C   0  0  0  0  0  0  0  0  0  0  0  0
    1.6350   29.2960   13.5560 C   0  0  0  0  0  0  0  0  0  0  0  0
   -0.6890   28.7770   10.4250 C   0  0  0  0  0  0  0  0  0  0  0  0
    1.6850   34.3230   16.1760 C   0  0  0  0  0  0  0  0  0  0  0  0
    1.3430   33.4450   15.0120 C   0  0  0  0  0  0  0  0  0  0  0  0
    2.0010   32.2500   14.5370 C   0  0  0  0  0  0  0  0  0  0  0  0
    1.4190   31.6150   13.3260 C   0  0  0  0  0  0  0  0  0  0  0  0
    0.1960   32.1330   12.6610 C   0  0  0  0  0  0  0  0  0  0  0  0
   -0.4650   33.3160   13.1790 C   0  0  0  0  0  0  0  0  0  0  0  0
    0.1320   33.9440   14.3720 C   0  0  0  0  0  0  0  0  0  0  0  0
   -0.4090   31.4630   11.4400 C   0  0  0  0  0  0  0  0  0  0  0  0
   -1.1050   35.9580   14.8350 O   0  0  0  0  0  0  0  0  0  0  0  0
    0.7330   35.4040   16.1240 O   0  0  0  0  0  0  0  0  0  0  0  0
    2.0480   30.4790   12.8690 O   0  0  0  0  0  0  0  0  0  0  0  0
   -1.5790   33.8210   12.6050 O   0  0  0  0  0  0  0  0  0  0  0  0
   -3.7780   28.9160   14.0470 O   0  0  0  0  0  0  0  0  0  0  0  0
   -2.0020   27.9340   14.7370 O   0  0  0  0  0  0  0  0  0  0  0  0
   -2.4851   31.1025   12.3030 H   0  0  0  0  0  0  0  0  0  0  0  0
   -3.8466   29.1925   11.7929 H   0  0  0  0  0  0  0  0  0  0  0  0
   -3.2782   28.0484   10.5044 H   0  0  0  0  0  0  0  0  0  0  0  0
   -3.5654   26.6797   12.4409 H   0  0  0  0  0  0  0  0  0  0  0  0
   -1.8165   26.9580   12.3603 H   0  0  0  0  0  0  0  0  0  0  0  0
    3.1698   31.7243   16.2550 H   0  0  0  0  0  0  0  0  0  0  0  0
    3.3862   30.6422   14.8377 H   0  0  0  0  0  0  0  0  0  0  0  0
    4.1230   32.2804   14.8377 H   0  0  0  0  0  0  0  0  0  0  0  0
    1.6934   29.4632   14.6417 H   0  0  0  0  0  0  0  0  0  0  0  0
    0.5989   29.0531   13.2776 H   0  0  0  0  0  0  0  0  0  0  0  0
    2.2948   28.4611   13.2776 H   0  0  0  0  0  0  0  0  0  0  0  0
    0.0673   28.3545   11.1029 H   0  0  0  0  0  0  0  0  0  0  0  0
   -1.1001   27.9779    9.7907 H   0  0  0  0  0  0  0  0  0  0  0  0
   -0.2241   29.5461    9.7907 H   0  0  0  0  0  0  0  0  0  0  0  0
    1.5873   33.7676   17.1204 H   0  0  0  0  0  0  0  0  0  0  0  0
    2.7226   34.6851   16.1280 H   0  0  0  0  0  0  0  0  0  0  0  0
    0.3441   30.7838   11.0140 H   0  0  0  0  0  0  0  0  0  0  0  0
   -0.7002   32.2727   10.7548 H   0  0  0  0  0  0  0  0  0  0  0  0
   -2.0070   34.6301   12.9823 H   0  0  0  0  0  0  0  0  0  0  0  0
   -3.8536   29.3874   14.9143 H   0  0  0  0  0  0  0  0  0  0  0  0
  2  3  2  0
  3  4  1  0
  4  5  1  0
  5  6  1  0
  3  9  1  0
 10 11  1  0
  7 12  1  0
 11 12  1  0
 12 13  2  0
 13 14  1  0
 14 15  2  0
  1 16  1  0
 11 16  2  0
 15 16  1  0
  2 17  1  0
 14 17  1  0
  1 18  2  0
  1 19  1  0
 10 19  1  0
  8 20  1  0
 13 20  1  0
 15 21  1  0
  6 22  1  0
  6 23  2  0
  2 24  1  0
  4 25  1  0
  4 26  1  0
  5 27  1  0
  5 28  1  0
  7 29  1  0
  7 30  1  0
  7 31  1  0
  8 32  1  0
  8 33  1  0
  8 34  1  0
  9 35  1  0
  9 36  1  0
  9 37  1  0
 10 38  1  0
 10 39  1  0
 17 40  1  0
 17 41  1  0
 21 42  1  0
 22 43  1  0
M  END
$$$$
