PDB_DB00523_97
     RDKit          3D

 50 50  0  0  0  0  0  0  0  0999 V2000
  -10.2600   38.6260   42.0630 C   0  0  0  0  0  0  0  0  0  0  0  0
  -11.8270   38.9820   41.9370 C   0  0  0  0  0  0  0  0  0  0  0  0
  -12.6520   38.1890   40.8290 C   0  0  0  0  0  0  0  0  0  0  0  0
  -11.9310   38.1550   39.4760 C   0  0  0  0  0  0  0  0  0  0  0  0
  -10.4370   37.6660   39.5120 C   0  0  0  0  0  0  0  0  0  0  0  0
   -9.5960   37.8750   40.7240 C   0  0  0  0  0  0  0  0  0  0  0  0
   -8.2060   37.4550   40.9040 C   0  0  0  0  0  0  0  0  0  0  0  0
   -7.3590   36.6460   40.2170 C   0  0  0  0  0  0  0  0  0  0  0  0
   -5.9540   36.4600   40.2000 C   0  0  0  0  0  0  0  0  0  0  0  0
   -5.4480   35.3030   39.5730 C   0  0  0  0  0  0  0  0  0  0  0  0
   -6.2490   34.2810   39.0450 C   0  0  0  0  0  0  0  0  0  0  0  0
   -5.6900   33.1160   38.5280 C   0  0  0  0  0  0  0  0  0  0  0  0
   -6.3990   31.9770   38.0720 C   0  0  0  0  0  0  0  0  0  0  0  0
   -5.6250   30.9330   37.6060 C   0  0  0  0  0  0  0  0  0  0  0  0
   -6.0500   29.5460   37.0810 C   0  0  0  0  0  0  0  0  0  0  0  0
  -10.2980   37.3720   43.1240 C   0  0  0  0  0  0  0  0  0  0  0  0
   -9.5040   39.7060   42.8040 C   0  0  0  0  0  0  0  0  0  0  0  0
   -9.9880   37.0110   38.2020 C   0  0  0  0  0  0  0  0  0  0  0  0
   -4.9490   37.4010   40.8400 C   0  0  0  0  0  0  0  0  0  0  0  0
   -7.9630   31.8720   38.1280 C   0  0  0  0  0  0  0  0  0  0  0  0
   -5.4820   29.0880   36.0890 O   0  0  0  0  0  0  0  0  0  0  0  0
   -6.9790   28.9090   37.6680 O   0  0  0  0  0  0  0  0  0  0  0  0
  -12.2950   38.7777   42.9113 H   0  0  0  0  0  0  0  0  0  0  0  0
  -11.8606   40.0361   41.6243 H   0  0  0  0  0  0  0  0  0  0  0  0
  -12.8044   37.1557   41.1741 H   0  0  0  0  0  0  0  0  0  0  0  0
  -13.6094   38.7115   40.6858 H   0  0  0  0  0  0  0  0  0  0  0  0
  -12.4913   37.4811   38.8112 H   0  0  0  0  0  0  0  0  0  0  0  0
  -11.8970   39.1979   39.1279 H   0  0  0  0  0  0  0  0  0  0  0  0
   -7.7417   37.8944   41.7992 H   0  0  0  0  0  0  0  0  0  0  0  0
   -7.8832   35.9834   39.5125 H   0  0  0  0  0  0  0  0  0  0  0  0
   -4.3562   35.1956   39.4932 H   0  0  0  0  0  0  0  0  0  0  0  0
   -7.3423   34.4023   39.0392 H   0  0  0  0  0  0  0  0  0  0  0  0
   -4.5924   33.0755   38.4676 H   0  0  0  0  0  0  0  0  0  0  0  0
   -4.5407   31.1183   37.6096 H   0  0  0  0  0  0  0  0  0  0  0  0
  -10.2862   37.7615   44.1526 H   0  0  0  0  0  0  0  0  0  0  0  0
  -11.2144   36.7847   42.9648 H   0  0  0  0  0  0  0  0  0  0  0  0
   -9.4189   36.7303   42.9648 H   0  0  0  0  0  0  0  0  0  0  0  0
   -9.6121   39.5516   43.8877 H   0  0  0  0  0  0  0  0  0  0  0  0
   -8.4392   39.6610   42.5316 H   0  0  0  0  0  0  0  0  0  0  0  0
   -9.9108   40.6911   42.5316 H   0  0  0  0  0  0  0  0  0  0  0  0
   -9.3791   36.1227   38.4261 H   0  0  0  0  0  0  0  0  0  0  0  0
  -10.8721   36.7122   37.6196 H   0  0  0  0  0  0  0  0  0  0  0  0
   -9.3904   37.7278   37.6196 H   0  0  0  0  0  0  0  0  0  0  0  0
   -5.0254   37.3295   41.9350 H   0  0  0  0  0  0  0  0  0  0  0  0
   -3.9329   37.1220   40.5243 H   0  0  0  0  0  0  0  0  0  0  0  0
   -5.1606   38.4333   40.5243 H   0  0  0  0  0  0  0  0  0  0  0  0
   -8.2917   31.8499   39.1775 H   0  0  0  0  0  0  0  0  0  0  0  0
   -8.4072   32.7423   37.6229 H   0  0  0  0  0  0  0  0  0  0  0  0
   -8.2869   30.9501   37.6229 H   0  0  0  0  0  0  0  0  0  0  0  0
   -5.7404   28.1996   35.7367 H   0  0  0  0  0  0  0  0  0  0  0  0
  1  2  1  0
  2  3  1  0
  3  4  1  0
  4  5  1  0
  1  6  1  0
  5  6  2  0
  6  7  1  0
  7  8  2  0
  8  9  1  0
  9 10  2  0
 10 11  1  0
 11 12  2  0
 12 13  1  0
 13 14  2  0
 14 15  1  0
  1 16  1  0
  1 17  1  0
  5 18  1  0
  9 19  1  0
 13 20  1  0
 15 21  1  0
 15 22  2  0
  2 23  1  0
  2 24  1  0
  3 25  1  0
  3 26  1  0
  4 27  1  0
  4 28  1  0
  7 29  1  0
  8 30  1  0
 10 31  1  0
 11 32  1  0
 12 33  1  0
 14 34  1  0
 16 35  1  0
 16 36  1  0
 16 37  1  0
 17 38  1  0
 17 39  1  0
 17 40  1  0
 18 41  1  0
 18 42  1  0
 18 43  1  0
 19 44  1  0
 19 45  1  0
 19 46  1  0
 20 47  1  0
 20 48  1  0
 20 49  1  0
 21 50  1  0
M  END
$$$$
