PDB_DB05015_99
     RDKit          3D

 36 37  0  0  0  0  0  0  0  0999 V2000
   28.3030   98.2600   28.4070 O   0  0  0  0  0  0  0  0  0  0  0  0
   27.7090   98.8410   29.2420 C   0  0  0  0  0  0  0  0  0  0  0  0
   26.2840   98.7420   29.3640 N   0  0  0  0  0  0  0  0  0  0  0  0
   25.6580   97.9840   28.4970 O   0  0  0  0  0  0  0  0  0  0  0  0
   28.3390   99.7190   30.2840 C   0  0  0  0  0  0  0  0  0  0  0  0
   29.5380   99.4540   30.7560 C   0  0  0  0  0  0  0  0  0  0  0  0
   30.1800   99.9720   31.9680 C   0  0  0  0  0  0  0  0  0  0  0  0
   31.3560   99.4140   32.4460 C   0  0  0  0  0  0  0  0  0  0  0  0
   29.6630  101.0420   32.7010 C   0  0  0  0  0  0  0  0  0  0  0  0
   30.3030  101.5010   33.8430 C   0  0  0  0  0  0  0  0  0  0  0  0
   31.4720  100.9130   34.2780 C   0  0  0  0  0  0  0  0  0  0  0  0
   32.0080   99.8310   33.5760 C   0  0  0  0  0  0  0  0  0  0  0  0
   33.5290   99.1400   34.1640 S   0  0  0  0  0  0  0  0  0  0  0  0
   33.3760   98.3310   35.5670 O   0  0  0  0  0  0  0  0  0  0  0  0
   33.9750   97.8910   33.2500 O   0  0  0  0  0  0  0  0  0  0  0  0
   34.7950  100.1640   34.1440 N   0  0  0  0  0  0  0  0  0  0  0  0
   35.0470  101.1380   33.1600 C   0  0  0  0  0  0  0  0  0  0  0  0
   35.7410  100.8250   31.9730 C   0  0  0  0  0  0  0  0  0  0  0  0
   35.9560  101.7860   31.0100 C   0  0  0  0  0  0  0  0  0  0  0  0
   35.4750  103.0750   31.1720 C   0  0  0  0  0  0  0  0  0  0  0  0
   34.7720  103.3880   32.3170 C   0  0  0  0  0  0  0  0  0  0  0  0
   34.5500  102.4410   33.2930 C   0  0  0  0  0  0  0  0  0  0  0  0
   25.7730   99.2459   30.1028 H   0  0  0  0  0  0  0  0  0  0  0  0
   25.1073   97.3171   28.9788 H   0  0  0  0  0  0  0  0  0  0  0  0
   27.7905  100.5961   30.6580 H   0  0  0  0  0  0  0  0  0  0  0  0
   30.1391   98.7498   30.1621 H   0  0  0  0  0  0  0  0  0  0  0  0
   31.7951   98.5798   31.8791 H   0  0  0  0  0  0  0  0  0  0  0  0
   28.7343  101.5283   32.3679 H   0  0  0  0  0  0  0  0  0  0  0  0
   29.8738  102.3422   34.4070 H   0  0  0  0  0  0  0  0  0  0  0  0
   31.9809  101.2950   35.1753 H   0  0  0  0  0  0  0  0  0  0  0  0
   35.4699  100.0926   34.9188 H   0  0  0  0  0  0  0  0  0  0  0  0
   36.1146   99.8026   31.8145 H   0  0  0  0  0  0  0  0  0  0  0  0
   36.5171  101.5265   30.1002 H   0  0  0  0  0  0  0  0  0  0  0  0
   35.6510  103.8377   30.3991 H   0  0  0  0  0  0  0  0  0  0  0  0
   34.3832  104.4080   32.4527 H   0  0  0  0  0  0  0  0  0  0  0  0
   33.9739  102.7122   34.1900 H   0  0  0  0  0  0  0  0  0  0  0  0
  1  2  2  0
  2  3  1  0
  3  4  1  0
  2  5  1  0
  5  6  2  0
  6  7  1  0
  7  8  2  0
  7  9  1  0
  9 10  2  0
 10 11  1  0
  8 12  1  0
 11 12  2  0
 12 13  1  0
 13 14  2  0
 13 15  2  0
 13 16  1  0
 16 17  1  0
 17 18  2  0
 18 19  1  0
 19 20  2  0
 20 21  1  0
 17 22  1  0
 21 22  2  0
  3 23  1  0
  4 24  1  0
  5 25  1  0
  6 26  1  0
  8 27  1  0
  9 28  1  0
 10 29  1  0
 11 30  1  0
 16 31  1  0
 18 32  1  0
 19 33  1  0
 20 34  1  0
 21 35  1  0
 22 36  1  0
M  END
$$$$
