PDB_DB00759_95
     RDKit          3D

 56 59  0  0  0  0  0  0  0  0999 V2000
  -77.0000   99.6350   75.9810 C   0  0  0  0  0  0  0  0  0  0  0  0
  -76.2820   98.9200   75.3070 O   0  0  0  0  0  0  0  0  0  0  0  0
  -76.8750  101.0830   76.0630 C   0  0  0  0  0  0  0  0  0  0  0  0
  -76.6220  101.9000   74.8710 C   0  0  0  0  0  0  0  0  0  0  0  0
  -77.5730  102.3800   74.2290 O   0  0  0  0  0  0  0  0  0  0  0  0
  -75.3610  102.1140   74.5170 N   0  0  0  0  0  0  0  0  0  0  0  0
  -77.0160  101.6700   77.3370 C   0  0  0  0  0  0  0  0  0  0  0  0
  -76.9360  103.0090   77.4550 O   0  0  0  0  0  0  0  0  0  0  0  0
  -77.2480  100.8390   78.5920 C   0  0  1  0  0  0  0  0  0  0  0  0
  -78.1750  101.6390   79.4140 N   0  0  0  0  0  0  0  0  0  0  0  0
  -79.6080  101.3250   79.3510 C   0  0  0  0  0  0  0  0  0  0  0  0
  -77.7490  101.8550   80.7940 C   0  0  0  0  0  0  0  0  0  0  0  0
  -77.6580   99.3510   78.4090 C   0  0  2  0  0  0  0  0  0  0  0  0
  -76.4700   98.4730   78.8430 C   0  0  0  0  0  0  0  0  0  0  0  0
  -76.8730   96.9860   78.9150 C   0  0  2  0  0  0  0  0  0  0  0  0
  -75.7320   95.9760   79.1620 C   0  0  2  0  0  0  0  0  0  0  0  0
  -74.7440   96.3510   80.2640 C   0  0  0  0  0  0  0  0  0  0  0  0
  -74.9630   95.8920   77.9530 O   0  0  0  0  0  0  0  0  0  0  0  0
  -76.3820   94.6060   79.3930 C   0  0  0  0  0  0  0  0  0  0  0  0
  -75.9810   93.7530   80.4170 C   0  0  0  0  0  0  0  0  0  0  0  0
  -76.6810   92.5860   80.6820 C   0  0  0  0  0  0  0  0  0  0  0  0
  -77.7850   92.2410   79.9210 C   0  0  0  0  0  0  0  0  0  0  0  0
  -78.1960   93.0590   78.8720 C   0  0  0  0  0  0  0  0  0  0  0  0
  -79.2830   92.6830   78.1430 O   0  0  0  0  0  0  0  0  0  0  0  0
  -77.4950   94.2570   78.5840 C   0  0  0  0  0  0  0  0  0  0  0  0
  -77.9400   95.1520   77.5030 C   0  0  0  0  0  0  0  0  0  0  0  0
  -78.4950   94.7130   76.4960 O   0  0  0  0  0  0  0  0  0  0  0  0
  -77.6460   96.6000   77.6670 C   0  0  0  0  0  0  0  0  0  0  0  0
  -78.1310   97.5080   76.7760 C   0  0  0  0  0  0  0  0  0  0  0  0
  -78.7660   97.1800   75.6560 O   0  0  0  0  0  0  0  0  0  0  0  0
  -78.0370   99.0190   76.9580 C   0  0  2  0  0  0  0  0  0  0  0  0
  -79.3060   99.5800   76.6430 O   0  0  0  0  0  0  0  0  0  0  0  0
  -75.1491  102.6833   73.6852 H   0  0  0  0  0  0  0  0  0  0  0  0
  -74.5942  101.7108   75.0741 H   0  0  0  0  0  0  0  0  0  0  0  0
  -77.0332  103.4343   78.3437 H   0  0  0  0  0  0  0  0  0  0  0  0
  -76.2836  100.6686   79.0930 H   0  0  0  0  0  0  0  0  0  0  0  0
  -80.0093  101.2371   80.3714 H   0  0  0  0  0  0  0  0  0  0  0  0
  -80.1363  102.1287   78.8172 H   0  0  0  0  0  0  0  0  0  0  0  0
  -79.7519  100.3740   78.8172 H   0  0  0  0  0  0  0  0  0  0  0  0
  -78.5161  101.4660   81.4797 H   0  0  0  0  0  0  0  0  0  0  0  0
  -76.7988  101.3298   80.9709 H   0  0  0  0  0  0  0  0  0  0  0  0
  -77.6112  102.9319   80.9709 H   0  0  0  0  0  0  0  0  0  0  0  0
  -78.5489   99.1579   79.0247 H   0  0  0  0  0  0  0  0  0  0  0  0
  -75.6535   98.5887   78.1151 H   0  0  0  0  0  0  0  0  0  0  0  0
  -76.1458   98.7951   79.8436 H   0  0  0  0  0  0  0  0  0  0  0  0
  -77.4982   96.9153   79.8173 H   0  0  0  0  0  0  0  0  0  0  0  0
  -75.2066   96.1754   81.2465 H   0  0  0  0  0  0  0  0  0  0  0  0
  -73.8381   95.7342   80.1697 H   0  0  0  0  0  0  0  0  0  0  0  0
  -74.4755   97.4136   80.1697 H   0  0  0  0  0  0  0  0  0  0  0  0
  -74.0046   95.7873   78.1781 H   0  0  0  0  0  0  0  0  0  0  0  0
  -75.0989   94.0076   81.0228 H   0  0  0  0  0  0  0  0  0  0  0  0
  -76.3569   91.9294   81.5029 H   0  0  0  0  0  0  0  0  0  0  0  0
  -78.3391   91.3178   80.1459 H   0  0  0  0  0  0  0  0  0  0  0  0
  -79.5949   93.2478   77.3921 H   0  0  0  0  0  0  0  0  0  0  0  0
  -79.0954   97.8885   75.0481 H   0  0  0  0  0  0  0  0  0  0  0  0
  -79.7893   99.7937   77.4802 H   0  0  0  0  0  0  0  0  0  0  0  0
  2  1  2  0
  3  1  1  0
  4  3  1  0
  5  4  2  0
  6  4  1  0
  7  3  2  0
  8  7  1  0
  9  7  1  0
 10  9  1  0
 11 10  1  0
 12 10  1  0
 13  9  1  0
 14 13  1  0
 15 14  1  0
 16 15  1  0
 17 16  1  0
 16 18  1  6
 19 16  1  0
 20 19  2  0
 21 20  1  0
 22 21  2  0
 23 22  1  0
 24 23  1  0
 25 23  2  0
 25 19  1  0
 26 25  1  0
 27 26  2  0
 28 26  1  0
 28 15  1  0
 29 28  2  0
 30 29  1  0
 31 29  1  0
 31  1  1  0
 31 13  1  0
 31 32  1  6
  6 33  1  0
  6 34  1  0
  8 35  1  0
  9 36  1  1
 11 37  1  0
 11 38  1  0
 11 39  1  0
 12 40  1  0
 12 41  1  0
 12 42  1  0
 13 43  1  1
 14 44  1  0
 14 45  1  0
 15 46  1  1
 17 47  1  0
 17 48  1  0
 17 49  1  0
 18 50  1  0
 20 51  1  0
 21 52  1  0
 22 53  1  0
 24 54  1  0
 30 55  1  0
 32 56  1  0
M  END
$$$$
