PDB_DB00783_94
     RDKit          3D

 44 47  0  0  0  0  0  0  0  0999 V2000
   -8.8100   36.9870   13.2500 C   0  0  0  0  0  0  0  0  0  0  0  0
   -7.5670   36.4120   13.4620 C   0  0  0  0  0  0  0  0  0  0  0  0
   -7.3430   34.9970   13.2210 C   0  0  0  0  0  0  0  0  0  0  0  0
   -6.0830   34.3740   13.4580 O   0  0  0  0  0  0  0  0  0  0  0  0
   -8.4230   34.2380   12.7540 C   0  0  0  0  0  0  0  0  0  0  0  0
   -9.6860   34.8010   12.5000 C   0  0  0  0  0  0  0  0  0  0  0  0
  -10.8480   33.8930   11.9920 C   0  0  0  0  0  0  0  0  0  0  0  0
  -12.2380   34.4910   12.2830 C   0  0  0  0  0  0  0  0  0  0  0  0
  -12.2450   35.9410   11.6740 C   0  0  2  0  0  0  0  0  0  0  0  0
  -11.2790   36.8540   12.4890 C   0  0  1  0  0  0  0  0  0  0  0  0
   -9.8870   36.2450   12.7520 C   0  0  0  0  0  0  0  0  0  0  0  0
  -11.2210   38.3170   11.9390 C   0  0  0  0  0  0  0  0  0  0  0  0
  -12.6240   39.0060   11.7800 C   0  0  0  0  0  0  0  0  0  0  0  0
  -13.5430   38.0660   10.9260 C   0  0  1  0  0  0  0  0  0  0  0  0
  -13.6180   36.6610   11.6300 C   0  0  1  0  0  0  0  0  0  0  0  0
  -14.7980   35.8710   10.9330 C   0  0  0  0  0  0  0  0  0  0  0  0
  -15.7770   37.0260   10.5690 C   0  0  0  0  0  0  0  0  0  0  0  0
  -15.0620   38.3330   10.9870 C   0  0  2  0  0  0  0  0  0  0  0  0
  -15.4180   39.4830   10.2120 O   0  0  0  0  0  0  0  0  0  0  0  0
  -13.0790   37.9970    9.4150 C   0  0  0  0  0  0  0  0  0  0  0  0
   -8.9537   38.0533   13.4789 H   0  0  0  0  0  0  0  0  0  0  0  0
   -6.7357   37.0378   13.8189 H   0  0  0  0  0  0  0  0  0  0  0  0
   -5.9682   33.4066   13.2819 H   0  0  0  0  0  0  0  0  0  0  0  0
   -8.2779   33.1617   12.5794 H   0  0  0  0  0  0  0  0  0  0  0  0
  -10.7421   33.7603   10.9052 H   0  0  0  0  0  0  0  0  0  0  0  0
  -10.7794   32.9340   12.5264 H   0  0  0  0  0  0  0  0  0  0  0  0
  -13.0203   33.8783   11.8112 H   0  0  0  0  0  0  0  0  0  0  0  0
  -12.4386   34.5159   13.3643 H   0  0  0  0  0  0  0  0  0  0  0  0
  -11.9354   35.7895   10.6294 H   0  0  0  0  0  0  0  0  0  0  0  0
  -11.7338   36.9181   13.4885 H   0  0  0  0  0  0  0  0  0  0  0  0
  -10.6173   38.9215   12.6319 H   0  0  0  0  0  0  0  0  0  0  0  0
  -10.7845   38.2567   10.9311 H   0  0  0  0  0  0  0  0  0  0  0  0
  -13.0741   39.1653   12.7710 H   0  0  0  0  0  0  0  0  0  0  0  0
  -12.5123   39.9801   11.2814 H   0  0  0  0  0  0  0  0  0  0  0  0
  -13.8510   36.7490   12.7014 H   0  0  0  0  0  0  0  0  0  0  0  0
  -14.4502   35.3414   10.0338 H   0  0  0  0  0  0  0  0  0  0  0  0
  -15.2450   35.0876   11.5627 H   0  0  0  0  0  0  0  0  0  0  0  0
  -15.9801   37.0295    9.4879 H   0  0  0  0  0  0  0  0  0  0  0  0
  -16.7444   36.9127   11.0803 H   0  0  0  0  0  0  0  0  0  0  0  0
  -15.3892   38.5896   12.0054 H   0  0  0  0  0  0  0  0  0  0  0  0
  -15.6495   40.2307   10.8182 H   0  0  0  0  0  0  0  0  0  0  0  0
  -11.9918   37.8353    9.3723 H   0  0  0  0  0  0  0  0  0  0  0  0
  -13.5934   37.1655    8.9111 H   0  0  0  0  0  0  0  0  0  0  0  0
  -13.3292   38.9422    8.9111 H   0  0  0  0  0  0  0  0  0  0  0  0
  1  2  2  0
  2  3  1  0
  3  4  1  0
  3  5  2  0
  5  6  1  0
  6  7  1  0
  7  8  1  0
  8  9  1  0
  9 10  1  0
  1 11  1  0
  6 11  2  0
 10 11  1  0
 10 12  1  0
 12 13  1  0
 13 14  1  0
  9 15  1  0
 14 15  1  0
 15 16  1  0
 16 17  1  0
 14 18  1  0
 17 18  1  0
 18 19  1  0
 14 20  1  6
  1 21  1  0
  2 22  1  0
  4 23  1  0
  5 24  1  0
  7 25  1  0
  7 26  1  0
  8 27  1  0
  8 28  1  0
  9 29  1  6
 10 30  1  1
 12 31  1  0
 12 32  1  0
 13 33  1  0
 13 34  1  0
 15 35  1  1
 16 36  1  0
 16 37  1  0
 17 38  1  0
 17 39  1  0
 18 40  1  1
 19 41  1  0
 20 42  1  0
 20 43  1  0
 20 44  1  0
M  END
$$$$
