PDB_DB06616_99
     RDKit          3D

 65 68  0  0  0  0  0  0  0  0999 V2000
   -2.4390   15.8230  -52.6150 C   0  0  0  0  0  0  0  0  0  0  0  0
   -0.7230   17.7490  -43.8250 O   0  0  0  0  0  0  0  0  0  0  0  0
   -0.2760   10.9670  -54.9260 C   0  0  0  0  0  0  0  0  0  0  0  0
   -2.8950   14.2390  -44.0700 N   0  0  0  0  0  0  0  0  0  0  0  0
   -3.2890   18.8070  -42.4990 Cl  0  0  0  0  0  0  0  0  0  0  0  0
   -5.8900   16.3750  -46.8020 Cl  0  0  0  0  0  0  0  0  0  0  0  0
   -2.5320   13.8910  -45.0810 C   0  0  0  0  0  0  0  0  0  0  0  0
   -1.3020   12.1440  -46.5160 C   0  0  0  0  0  0  0  0  0  0  0  0
   -4.4780   17.5620  -44.6880 C   0  0  0  0  0  0  0  0  0  0  0  0
   -1.8260   16.6460  -45.7600 C   0  0  0  0  0  0  0  0  0  0  0  0
   -0.5380   11.8080  -50.3050 C   0  0  0  0  0  0  0  0  0  0  0  0
   -2.0290   14.4420  -50.2560 C   0  0  0  0  0  0  0  0  0  0  0  0
    0.7430   10.3250  -53.9950 C   0  0  0  0  0  0  0  0  0  0  0  0
    0.7360   11.0740  -52.6630 C   0  0  0  0  0  0  0  0  0  0  0  0
   -0.7980    7.5090  -59.0390 C   0  0  0  0  0  0  0  0  0  0  0  0
   -1.3080   10.3190  -57.2360 C   0  0  0  0  0  0  0  0  0  0  0  0
    0.3100    8.9150  -56.1780 C   0  0  0  0  0  0  0  0  0  0  0  0
   -0.7130    9.9490  -58.6050 C   0  0  0  0  0  0  0  0  0  0  0  0
    0.9210    8.5590  -57.4940 C   0  0  0  0  0  0  0  0  0  0  0  0
   -0.8210   11.6400  -47.7690 N   0  0  0  0  0  0  0  0  0  0  0  0
   -3.0370   15.5280  -47.7040 N   0  0  0  0  0  0  0  0  0  0  0  0
   -1.7680   14.6040  -52.6880 O   0  0  0  0  0  0  0  0  0  0  0  0
   -0.2860   12.0260  -52.7280 O   0  0  0  0  0  0  0  0  0  0  0  0
   -1.8860   17.4360  -44.4920 C   0  0  0  0  0  0  0  0  0  0  0  0
   -3.2170   17.8930  -43.9630 C   0  0  0  0  0  0  0  0  0  0  0  0
   -4.4280   16.7700  -45.9530 C   0  0  0  0  0  0  0  0  0  0  0  0
   -2.0470   13.4380  -46.4190 C   0  0  0  0  0  0  0  0  0  0  0  0
   -3.0980   16.3140  -46.4880 C   0  0  0  0  0  0  0  0  0  0  0  0
   -1.5230   13.8770  -51.5450 C   0  0  0  0  0  0  0  0  0  0  0  0
   -0.7800   12.5830  -51.5560 C   0  0  0  0  0  0  0  0  0  0  0  0
   -2.3230   14.2440  -47.6770 C   0  0  0  0  0  0  0  0  0  0  0  0
   -1.0450   12.3590  -48.9920 C   0  0  0  0  0  0  0  0  0  0  0  0
   -1.7920   13.6770  -48.9890 C   0  0  0  0  0  0  0  0  0  0  0  0
   -0.2430   10.2440  -56.2370 N   0  0  0  0  0  0  0  0  0  0  0  0
   -0.0790    8.6600  -58.5140 N   0  0  0  0  0  0  0  0  0  0  0  0
    0.3580   16.8780  -43.8610 C   0  0  0  0  0  0  0  0  0  0  0  0
   -2.5894   16.0962  -51.5601 H   0  0  0  0  0  0  0  0  0  0  0  0
   -1.8419   16.6007  -53.1136 H   0  0  0  0  0  0  0  0  0  0  0  0
   -3.4155   15.7345  -53.1136 H   0  0  0  0  0  0  0  0  0  0  0  0
   -1.2810   10.8908  -54.4854 H   0  0  0  0  0  0  0  0  0  0  0  0
   -0.0336   12.0295  -55.0752 H   0  0  0  0  0  0  0  0  0  0  0  0
   -1.1182   11.5631  -45.6002 H   0  0  0  0  0  0  0  0  0  0  0  0
   -5.4457   17.9017  -44.2904 H   0  0  0  0  0  0  0  0  0  0  0  0
   -0.8569   16.3100  -46.1574 H   0  0  0  0  0  0  0  0  0  0  0  0
    0.0013   10.8498  -50.3373 H   0  0  0  0  0  0  0  0  0  0  0  0
   -2.5656   15.4021  -50.2381 H   0  0  0  0  0  0  0  0  0  0  0  0
    0.4775    9.2708  -53.8274 H   0  0  0  0  0  0  0  0  0  0  0  0
    1.7448   10.3759  -54.4464 H   0  0  0  0  0  0  0  0  0  0  0  0
    0.5454   10.3725  -51.8374 H   0  0  0  0  0  0  0  0  0  0  0  0
    1.7077   11.5568  -52.4820 H   0  0  0  0  0  0  0  0  0  0  0  0
   -1.1774    6.9016  -58.2041 H   0  0  0  0  0  0  0  0  0  0  0  0
   -1.6418    7.8535  -59.6549 H   0  0  0  0  0  0  0  0  0  0  0  0
   -0.1183    6.9018  -59.6549 H   0  0  0  0  0  0  0  0  0  0  0  0
   -1.7140   11.3407  -57.2708 H   0  0  0  0  0  0  0  0  0  0  0  0
   -2.1209    9.6250  -56.9761 H   0  0  0  0  0  0  0  0  0  0  0  0
   -0.4895    8.1976  -55.9412 H   0  0  0  0  0  0  0  0  0  0  0  0
    1.0847    8.8797  -55.3979 H   0  0  0  0  0  0  0  0  0  0  0  0
   -1.5152    9.9119  -59.3567 H   0  0  0  0  0  0  0  0  0  0  0  0
    0.0289   10.7051  -58.9015 H   0  0  0  0  0  0  0  0  0  0  0  0
    1.7465    9.2511  -57.7168 H   0  0  0  0  0  0  0  0  0  0  0  0
    1.3119    7.5315  -57.4568 H   0  0  0  0  0  0  0  0  0  0  0  0
   -3.4848   15.8624  -48.5692 H   0  0  0  0  0  0  0  0  0  0  0  0
    0.6644   16.6312  -42.8338 H   0  0  0  0  0  0  0  0  0  0  0  0
    0.0694   15.9571  -44.3889 H   0  0  0  0  0  0  0  0  0  0  0  0
    1.1965   17.3558  -44.3889 H   0  0  0  0  0  0  0  0  0  0  0  0
  4  7  3  0
  3 13  1  0
 13 14  1  0
 16 18  1  0
 17 19  1  0
  8 20  2  0
  1 22  1  0
 14 23  1  0
  2 24  1  0
 10 24  2  0
  5 25  1  0
  9 25  2  0
 24 25  1  0
  6 26  1  0
  9 26  1  0
  7 27  1  0
  8 27  1  0
 10 28  1  0
 21 28  1  0
 26 28  2  0
 12 29  1  0
 22 29  1  0
 11 30  1  0
 23 30  1  0
 29 30  2  0
 21 31  1  0
 27 31  2  0
 11 32  2  0
 20 32  1  0
 12 33  2  0
 31 33  1  0
 32 33  1  0
  3 34  1  0
 16 34  1  0
 17 34  1  0
 15 35  1  0
 18 35  1  0
 19 35  1  0
  2 36  1  0
  1 37  1  0
  1 38  1  0
  1 39  1  0
  3 40  1  0
  3 41  1  0
  8 42  1  0
  9 43  1  0
 10 44  1  0
 11 45  1  0
 12 46  1  0
 13 47  1  0
 13 48  1  0
 14 49  1  0
 14 50  1  0
 15 51  1  0
 15 52  1  0
 15 53  1  0
 16 54  1  0
 16 55  1  0
 17 56  1  0
 17 57  1  0
 18 58  1  0
 18 59  1  0
 19 60  1  0
 19 61  1  0
 21 62  1  0
 36 63  1  0
 36 64  1  0
 36 65  1  0
M  END
$$$$
