PDB_DB09462_97
     RDKit          3D

 14 13  0  0  0  0  0  0  0  0999 V2000
    6.8250    2.3660   13.1190 C   0  0  0  0  0  0  0  0  0  0  0  0
    6.6590    3.5480   12.3840 O   0  0  0  0  0  0  0  0  0  0  0  0
    8.0380    1.5400   12.7000 C   0  0  0  0  0  0  0  0  0  0  0  0
    9.0700    2.3650   12.3080 O   0  0  0  0  0  0  0  0  0  0  0  0
    7.7040    0.5770   11.5740 C   0  0  0  0  0  0  0  0  0  0  0  0
    8.3490   -0.6510   11.6960 O   0  0  0  0  0  0  0  0  0  0  0  0
    6.9373    2.6316   14.1805 H   0  0  0  0  0  0  0  0  0  0  0  0
    5.9366    1.7457   12.9294 H   0  0  0  0  0  0  0  0  0  0  0  0
    6.5519    4.3109   13.0057 H   0  0  0  0  0  0  0  0  0  0  0  0
    8.3479    0.9505   13.5755 H   0  0  0  0  0  0  0  0  0  0  0  0
    9.5245    2.7283   13.1090 H   0  0  0  0  0  0  0  0  0  0  0  0
    6.6178    0.4033   11.5726 H   0  0  0  0  0  0  0  0  0  0  0  0
    8.0488    1.0368   10.6361 H   0  0  0  0  0  0  0  0  0  0  0  0
    8.4638   -0.8696   12.6547 H   0  0  0  0  0  0  0  0  0  0  0  0
  1  2  1  0
  1  3  1  0
  3  4  1  0
  3  5  1  0
  5  6  1  0
  1  7  1  0
  1  8  1  0
  2  9  1  0
  3 10  1  0
  4 11  1  0
  5 12  1  0
  5 13  1  0
  6 14  1  0
M  END
$$$$
