PDB_DB00819_87
     RDKit          3D

 19 19  0  0  0  0  0  0  0  0999 V2000
   17.7910    5.5370   25.4360 C   0  0  0  0  0  0  0  0  0  0  0  0
   18.3440    7.6770   25.9060 C   0  0  0  0  0  0  0  0  0  0  0  0
   20.0180    9.4550   25.9800 C   0  0  0  0  0  0  0  0  0  0  0  0
   21.1630    8.5180   26.3180 C   0  0  0  0  0  0  0  0  0  0  0  0
   16.9530    3.1160   26.1670 N   0  0  0  0  0  0  0  0  0  0  0  0
   17.0840    7.4740   26.1280 N   0  0  0  0  0  0  0  0  0  0  0  0
   16.7400    6.1820   25.8430 N   0  0  0  0  0  0  0  0  0  0  0  0
   18.7460    8.9460   26.1660 N   0  0  0  0  0  0  0  0  0  0  0  0
   19.0790    3.3380   24.8410 O   0  0  0  0  0  0  0  0  0  0  0  0
   17.0690    3.7740   23.6530 O   0  0  0  0  0  0  0  0  0  0  0  0
   20.2920   10.5820   25.5720 O   0  0  0  0  0  0  0  0  0  0  0  0
   17.7110    3.8300   24.9650 S   0  0  0  0  0  0  0  0  0  0  0  0
   19.2630    6.3840   25.3560 S   0  0  0  0  0  0  0  0  0  0  0  0
   21.2609    8.4379   27.4107 H   0  0  0  0  0  0  0  0  0  0  0  0
   20.9602    7.5234   25.8941 H   0  0  0  0  0  0  0  0  0  0  0  0
   22.0978    8.9135   25.8941 H   0  0  0  0  0  0  0  0  0  0  0  0
   17.3236    3.4651   27.0624 H   0  0  0  0  0  0  0  0  0  0  0  0
   15.9456    3.3224   26.1086 H   0  0  0  0  0  0  0  0  0  0  0  0
   18.0355    9.5925   26.5377 H   0  0  0  0  0  0  0  0  0  0  0  0
  3  4  1  0
  2  6  2  0
  1  7  2  0
  6  7  1  0
  2  8  1  0
  3  8  1  0
  3 11  2  0
  1 12  1  0
  5 12  1  0
  9 12  2  0
 10 12  2  0
  1 13  1  0
  2 13  1  0
  4 14  1  0
  4 15  1  0
  4 16  1  0
  5 17  1  0
  5 18  1  0
  8 19  1  0
M  END
$$$$
