PDB_DB00188_96
     RDKit          3D

 53 54  0  0  0  0  0  0  0  0999 V2000
    4.6010  215.2620   61.1240 N   0  0  0  0  0  0  0  0  0  0  0  0
    4.2810  216.5770   61.1320 C   0  0  0  0  0  0  0  0  0  0  0  0
    2.9130  216.9610   61.1680 C   0  0  0  0  0  0  0  0  0  0  0  0
    1.8740  216.0860   61.2400 N   0  0  0  0  0  0  0  0  0  0  0  0
    2.1840  214.7910   61.2490 C   0  0  0  0  0  0  0  0  0  0  0  0
    3.5480  214.3870   61.1670 C   0  0  0  0  0  0  0  0  0  0  0  0
    5.3010  217.6740   61.0300 C   0  0  0  0  0  0  0  0  0  0  0  0
    6.0500  217.9680   61.9490 O   0  0  0  0  0  0  0  0  0  0  0  0
    5.2780  218.3480   59.8610 N   0  0  0  0  0  0  0  0  0  0  0  0
    6.0880  219.4990   59.5590 C   0  0  1  0  0  0  0  0  0  0  0  0
    6.9970  219.1850   58.3800 C   0  0  0  0  0  0  0  0  0  0  0  0
    7.9020  220.3340   58.0420 C   0  0  0  0  0  0  0  0  0  0  0  0
    8.9210  220.6960   58.9240 C   0  0  0  0  0  0  0  0  0  0  0  0
    9.7630  221.7590   58.5980 C   0  0  0  0  0  0  0  0  0  0  0  0
    9.5790  222.4360   57.3820 C   0  0  0  0  0  0  0  0  0  0  0  0
    8.5650  222.0880   56.4790 C   0  0  0  0  0  0  0  0  0  0  0  0
    7.7330  221.0240   56.8330 C   0  0  0  0  0  0  0  0  0  0  0  0
    5.1410  220.6740   59.3190 C   0  0  0  0  0  0  0  0  0  0  0  0
    4.1210  220.5390   58.6670 O   0  0  0  0  0  0  0  0  0  0  0  0
    5.4580  221.8700   59.8300 N   0  0  0  0  0  0  0  0  0  0  0  0
    4.6350  223.0740   59.6850 C   0  0  1  0  0  0  0  0  0  0  0  0
    4.3470  223.5830   61.1100 C   0  0  0  0  0  0  0  0  0  0  0  0
    3.1530  222.9400   61.8630 C   0  0  0  0  0  0  0  0  0  0  0  0
    2.7950  221.5110   61.5350 C   0  0  0  0  0  0  0  0  0  0  0  0
    3.1760  223.1450   63.3720 C   0  0  0  0  0  0  0  0  0  0  0  0
    5.3780  224.2190   58.8540 B   0  0  0  0  0  0  0  0  0  0  0  0
    5.8100  223.7880   57.4180 O   0  0  0  0  0  0  0  0  0  0  0  0
    6.6840  224.5260   59.6020 O   0  0  0  0  0  0  0  0  0  0  0  0
    2.6793  218.0354   61.1355 H   0  0  0  0  0  0  0  0  0  0  0  0
    1.3886  214.0345   61.3196 H   0  0  0  0  0  0  0  0  0  0  0  0
    3.7682  213.3097   61.1365 H   0  0  0  0  0  0  0  0  0  0  0  0
    4.6330  218.0140   59.1307 H   0  0  0  0  0  0  0  0  0  0  0  0
    6.7589  219.7708   60.3872 H   0  0  0  0  0  0  0  0  0  0  0  0
    7.6140  218.3097   58.6313 H   0  0  0  0  0  0  0  0  0  0  0  0
    6.3603  218.9870   57.5051 H   0  0  0  0  0  0  0  0  0  0  0  0
    9.0589  220.1480   59.8677 H   0  0  0  0  0  0  0  0  0  0  0  0
   10.5640  222.0642   59.2874 H   0  0  0  0  0  0  0  0  0  0  0  0
   10.2533  223.2676   57.1293 H   0  0  0  0  0  0  0  0  0  0  0  0
    8.4304  222.6302   55.5314 H   0  0  0  0  0  0  0  0  0  0  0  0
    6.9273  220.7204   56.1484 H   0  0  0  0  0  0  0  0  0  0  0  0
    6.3378  221.9493   60.3597 H   0  0  0  0  0  0  0  0  0  0  0  0
    3.7160  222.8272   59.1332 H   0  0  0  0  0  0  0  0  0  0  0  0
    5.2507  223.4095   61.7126 H   0  0  0  0  0  0  0  0  0  0  0  0
    4.0675  224.6393   60.9834 H   0  0  0  0  0  0  0  0  0  0  0  0
    2.3340  223.5348   61.4323 H   0  0  0  0  0  0  0  0  0  0  0  0
    2.6533  220.9452   62.4676 H   0  0  0  0  0  0  0  0  0  0  0  0
    1.8642  221.4914   60.9492 H   0  0  0  0  0  0  0  0  0  0  0  0
    3.6066  221.0549   60.9492 H   0  0  0  0  0  0  0  0  0  0  0  0
    3.0670  222.1732   63.8758 H   0  0  0  0  0  0  0  0  0  0  0  0
    4.1314  223.6048   63.6651 H   0  0  0  0  0  0  0  0  0  0  0  0
    2.3463  223.8051   63.6651 H   0  0  0  0  0  0  0  0  0  0  0  0
    6.5095  223.0901   57.4793 H   0  0  0  0  0  0  0  0  0  0  0  0
    6.5221  224.4879   60.5779 H   0  0  0  0  0  0  0  0  0  0  0  0
  1  2  2  0
  2  3  1  0
  3  4  2  0
  4  5  1  0
  1  6  1  0
  5  6  2  0
  2  7  1  0
  7  8  2  0
  7  9  1  0
  9 10  1  0
 10 11  1  0
 11 12  1  0
 12 13  2  0
 13 14  1  0
 14 15  2  0
 15 16  1  0
 12 17  1  0
 16 17  2  0
 10 18  1  0
 18 19  2  0
 18 20  1  0
 20 21  1  0
 21 22  1  0
 22 23  1  0
 23 24  1  0
 23 25  1  0
 21 26  1  0
 26 27  1  0
 26 28  1  0
  3 29  1  0
  5 30  1  0
  6 31  1  0
  9 32  1  0
 10 33  1  1
 11 34  1  0
 11 35  1  0
 13 36  1  0
 14 37  1  0
 15 38  1  0
 16 39  1  0
 17 40  1  0
 20 41  1  0
 21 42  1  6
 22 43  1  0
 22 44  1  0
 23 45  1  0
 24 46  1  0
 24 47  1  0
 24 48  1  0
 25 49  1  0
 25 50  1  0
 25 51  1  0
 27 52  1  0
 28 53  1  0
M  END
$$$$
