PDB_DB00619_89
     RDKit          3D

 68 72  0  0  0  0  0  0  0  0999 V2000
   41.2760   43.2520   30.0070 C   0  0  0  0  0  0  0  0  0  0  0  0
   40.9140   44.2120   29.0520 C   0  0  0  0  0  0  0  0  0  0  0  0
   40.0200   45.2320   29.4160 C   0  0  0  0  0  0  0  0  0  0  0  0
   39.5150   45.2640   30.7300 C   0  0  0  0  0  0  0  0  0  0  0  0
   39.8790   44.3260   31.6360 N   0  0  0  0  0  0  0  0  0  0  0  0
   40.7450   43.3360   31.3010 C   0  0  0  0  0  0  0  0  0  0  0  0
   39.6140   46.2680   28.4290 C   0  0  0  0  0  0  0  0  0  0  0  0
   40.1660   46.3960   27.1490 C   0  0  0  0  0  0  0  0  0  0  0  0
   39.6880   47.4260   26.3270 C   0  0  0  0  0  0  0  0  0  0  0  0
   38.7120   48.2530   26.7720 N   0  0  0  0  0  0  0  0  0  0  0  0
   38.1960   48.1060   28.0100 C   0  0  0  0  0  0  0  0  0  0  0  0
   38.6470   47.1290   28.8160 N   0  0  0  0  0  0  0  0  0  0  0  0
   37.2270   48.9280   28.4720 N   0  0  0  0  0  0  0  0  0  0  0  0
   36.7820   50.0170   27.7980 C   0  0  0  0  0  0  0  0  0  0  0  0
   37.4760   51.2420   27.7600 C   0  0  0  0  0  0  0  0  0  0  0  0
   36.9310   52.3170   27.0510 C   0  0  0  0  0  0  0  0  0  0  0  0
   35.7000   52.1920   26.3960 C   0  0  0  0  0  0  0  0  0  0  0  0
   35.0190   50.9640   26.4080 C   0  0  0  0  0  0  0  0  0  0  0  0
   35.5560   49.8950   27.1330 C   0  0  0  0  0  0  0  0  0  0  0  0
   33.7530   50.8680   25.7770 N   0  0  0  0  0  0  0  0  0  0  0  0
   32.9490   49.7810   25.6160 C   0  0  0  0  0  0  0  0  0  0  0  0
   31.5790   49.9960   25.0030 C   0  0  0  0  0  0  0  0  0  0  0  0
   30.5480   49.1200   25.3730 C   0  0  0  0  0  0  0  0  0  0  0  0
   29.2590   49.3000   24.8630 C   0  0  0  0  0  0  0  0  0  0  0  0
   28.9800   50.3520   23.9930 C   0  0  0  0  0  0  0  0  0  0  0  0
   30.0050   51.2510   23.6380 C   0  0  0  0  0  0  0  0  0  0  0  0
   31.3020   51.0690   24.1510 C   0  0  0  0  0  0  0  0  0  0  0  0
   27.5420   50.5050   23.4580 C   0  0  0  0  0  0  0  0  0  0  0  0
   27.4670   50.7680   22.0020 N   0  0  0  0  0  0  0  0  0  0  0  0
   28.1030   49.7230   21.1600 C   0  0  0  0  0  0  0  0  0  0  0  0
   28.1400   50.1830   19.6780 C   0  0  0  0  0  0  0  0  0  0  0  0
   26.7520   50.4720   19.2300 N   0  0  0  0  0  0  0  0  0  0  0  0
   26.6750   50.7490   17.7770 C   0  0  0  0  0  0  0  0  0  0  0  0
   26.1270   51.5360   20.0590 C   0  0  0  0  0  0  0  0  0  0  0  0
   26.0800   51.0850   21.5460 C   0  0  0  0  0  0  0  0  0  0  0  0
   33.2570   48.6470   25.9520 O   0  0  0  0  0  0  0  0  0  0  0  0
   38.8270   51.4480   28.4660 C   0  0  0  0  0  0  0  0  0  0  0  0
   41.9702   42.4405   29.7432 H   0  0  0  0  0  0  0  0  0  0  0  0
   41.3242   44.1671   28.0323 H   0  0  0  0  0  0  0  0  0  0  0  0
   38.8161   46.0609   31.0241 H   0  0  0  0  0  0  0  0  0  0  0  0
   41.0339   42.5895   32.0555 H   0  0  0  0  0  0  0  0  0  0  0  0
   40.9508   45.7094   26.7989 H   0  0  0  0  0  0  0  0  0  0  0  0
   40.1063   47.5628   25.3189 H   0  0  0  0  0  0  0  0  0  0  0  0
   36.8035   48.7151   29.3865 H   0  0  0  0  0  0  0  0  0  0  0  0
   37.4757   53.2717   27.0074 H   0  0  0  0  0  0  0  0  0  0  0  0
   35.2660   53.0562   25.8717 H   0  0  0  0  0  0  0  0  0  0  0  0
   35.0063   48.9434   27.1814 H   0  0  0  0  0  0  0  0  0  0  0  0
   33.3889   51.7475   25.3836 H   0  0  0  0  0  0  0  0  0  0  0  0
   30.7540   48.2904   26.0653 H   0  0  0  0  0  0  0  0  0  0  0  0
   28.4571   48.6044   25.1513 H   0  0  0  0  0  0  0  0  0  0  0  0
   29.7918   52.0922   22.9621 H   0  0  0  0  0  0  0  0  0  0  0  0
   32.1018   51.7741   23.8805 H   0  0  0  0  0  0  0  0  0  0  0  0
   26.9929   49.5759   23.6707 H   0  0  0  0  0  0  0  0  0  0  0  0
   27.1053   51.3793   23.9629 H   0  0  0  0  0  0  0  0  0  0  0  0
   29.1301   49.5470   21.5122 H   0  0  0  0  0  0  0  0  0  0  0  0
   27.5179   48.7945   21.2347 H   0  0  0  0  0  0  0  0  0  0  0  0
   28.7539   51.0913   19.5883 H   0  0  0  0  0  0  0  0  0  0  0  0
   28.5769   49.3909   19.0521 H   0  0  0  0  0  0  0  0  0  0  0  0
   26.3835   51.7978   17.6186 H   0  0  0  0  0  0  0  0  0  0  0  0
   27.6575   50.5680   17.3167 H   0  0  0  0  0  0  0  0  0  0  0  0
   25.9268   50.0869   17.3167 H   0  0  0  0  0  0  0  0  0  0  0  0
   26.7194   52.4591   19.9758 H   0  0  0  0  0  0  0  0  0  0  0  0
   25.1027   51.7198   19.7025 H   0  0  0  0  0  0  0  0  0  0  0  0
   25.4472   50.1902   21.6402 H   0  0  0  0  0  0  0  0  0  0  0  0
   25.6600   51.8909   22.1658 H   0  0  0  0  0  0  0  0  0  0  0  0
   38.6785   51.4254   29.5557 H   0  0  0  0  0  0  0  0  0  0  0  0
   39.5197   50.6451   28.1736 H   0  0  0  0  0  0  0  0  0  0  0  0
   39.2489   52.4209   28.1736 H   0  0  0  0  0  0  0  0  0  0  0  0
  1  2  2  0
  2  3  1  0
  3  4  2  0
  4  5  1  0
  1  6  1  0
  5  6  2  0
  3  7  1  0
  7  8  2  0
  8  9  1  0
  9 10  2  0
 10 11  1  0
  7 12  1  0
 11 12  2  0
 11 13  1  0
 13 14  1  0
 14 15  2  0
 15 16  1  0
 16 17  2  0
 17 18  1  0
 14 19  1  0
 18 19  2  0
 18 20  1  0
 20 21  1  0
 21 22  1  0
 22 23  2  0
 23 24  1  0
 24 25  2  0
 25 26  1  0
 22 27  1  0
 26 27  2  0
 25 28  1  0
 28 29  1  0
 29 30  1  0
 30 31  1  0
 31 32  1  0
 32 33  1  0
 32 34  1  0
 29 35  1  0
 34 35  1  0
 21 36  2  0
 15 37  1  0
  1 38  1  0
  2 39  1  0
  4 40  1  0
  6 41  1  0
  8 42  1  0
  9 43  1  0
 13 44  1  0
 16 45  1  0
 17 46  1  0
 19 47  1  0
 20 48  1  0
 23 49  1  0
 24 50  1  0
 26 51  1  0
 27 52  1  0
 28 53  1  0
 28 54  1  0
 30 55  1  0
 30 56  1  0
 31 57  1  0
 31 58  1  0
 33 59  1  0
 33 60  1  0
 33 61  1  0
 34 62  1  0
 34 63  1  0
 35 64  1  0
 35 65  1  0
 37 66  1  0
 37 67  1  0
 37 68  1  0
M  END
$$$$
