PDB_DB00203_96
     RDKit          3D

 63 66  0  0  0  0  0  0  0  0999 V2000
   18.8180  -35.5470   20.1900 C   0  0  0  0  0  0  0  0  0  0  0  0
   18.5830  -36.7730   19.3080 C   0  0  0  0  0  0  0  0  0  0  0  0
   18.8260  -36.3900   17.8460 C   0  0  0  0  0  0  0  0  0  0  0  0
   20.3000  -36.3150   17.4560 C   0  0  0  0  0  0  0  0  0  0  0  0
   20.9500  -35.2590   16.9590 N   0  0  0  0  0  0  0  0  0  0  0  0
   22.1370  -35.5590   16.7360 N   0  0  0  0  0  0  0  0  0  0  0  0
   23.1770  -34.6620   16.1730 C   0  0  0  0  0  0  0  0  0  0  0  0
   22.4050  -36.8120   17.0540 C   0  0  0  0  0  0  0  0  0  0  0  0
   23.5580  -37.5670   16.9950 C   0  0  0  0  0  0  0  0  0  0  0  0
   24.5790  -37.0440   16.5580 O   0  0  0  0  0  0  0  0  0  0  0  0
   23.4940  -38.8940   17.4360 N   0  0  0  0  0  0  0  0  0  0  0  0
   22.2470  -39.3930   17.9400 C   0  0  0  0  0  0  0  0  0  0  0  0
   21.1510  -38.6240   17.9640 N   0  0  0  0  0  0  0  0  0  0  0  0
   21.2180  -37.3480   17.5350 C   0  0  0  0  0  0  0  0  0  0  0  0
   22.0980  -40.6890   18.3800 C   0  0  0  0  0  0  0  0  0  0  0  0
   20.9070  -41.2880   18.1090 C   0  0  0  0  0  0  0  0  0  0  0  0
   20.6950  -42.5930   18.4820 C   0  0  0  0  0  0  0  0  0  0  0  0
   21.6530  -43.3270   19.1420 C   0  0  0  0  0  0  0  0  0  0  0  0
   22.8620  -42.7160   19.4300 C   0  0  0  0  0  0  0  0  0  0  0  0
   23.0950  -41.3840   19.0580 C   0  0  0  0  0  0  0  0  0  0  0  0
   24.3200  -40.7960   19.3240 O   0  0  0  0  0  0  0  0  0  0  0  0
   24.4610  -40.2070   20.5970 C   0  0  0  0  0  0  0  0  0  0  0  0
   24.4230  -41.2440   21.7110 C   0  0  0  0  0  0  0  0  0  0  0  0
   19.1470  -43.2310   18.1170 S   0  0  0  0  0  0  0  0  0  0  0  0
   18.9720  -43.0590   16.6250 O   0  0  0  0  0  0  0  0  0  0  0  0
   19.0480  -44.6750   18.5030 O   0  0  0  0  0  0  0  0  0  0  0  0
   18.0370  -42.3130   19.0570 N   0  0  0  0  0  0  0  0  0  0  0  0
   16.8400  -43.0590   19.5030 C   0  0  0  0  0  0  0  0  0  0  0  0
   16.0610  -42.2390   20.5700 C   0  0  0  0  0  0  0  0  0  0  0  0
   15.7460  -40.8930   20.0230 N   0  0  0  0  0  0  0  0  0  0  0  0
   14.9060  -40.0930   20.9410 C   0  0  0  0  0  0  0  0  0  0  0  0
   16.9730  -40.1610   19.5800 C   0  0  0  0  0  0  0  0  0  0  0  0
   17.6550  -40.9980   18.4760 C   0  0  0  0  0  0  0  0  0  0  0  0
   18.7617  -35.8406   21.2486 H   0  0  0  0  0  0  0  0  0  0  0  0
   19.8128  -35.1281   19.9781 H   0  0  0  0  0  0  0  0  0  0  0  0
   18.0486  -34.7899   19.9781 H   0  0  0  0  0  0  0  0  0  0  0  0
   19.2771  -37.5752   19.5992 H   0  0  0  0  0  0  0  0  0  0  0  0
   17.5490  -37.1271   19.4322 H   0  0  0  0  0  0  0  0  0  0  0  0
   18.3377  -37.1405   17.2070 H   0  0  0  0  0  0  0  0  0  0  0  0
   18.4111  -35.3803   17.7104 H   0  0  0  0  0  0  0  0  0  0  0  0
   23.7318  -34.1835   16.9935 H   0  0  0  0  0  0  0  0  0  0  0  0
   23.8716  -35.2490   15.5541 H   0  0  0  0  0  0  0  0  0  0  0  0
   22.6984  -33.8888   15.5541 H   0  0  0  0  0  0  0  0  0  0  0  0
   24.3259  -39.5002   17.3993 H   0  0  0  0  0  0  0  0  0  0  0  0
   20.1143  -40.7278   17.5916 H   0  0  0  0  0  0  0  0  0  0  0  0
   21.4640  -44.3708   19.4331 H   0  0  0  0  0  0  0  0  0  0  0  0
   23.6465  -43.2805   19.9552 H   0  0  0  0  0  0  0  0  0  0  0  0
   25.4235  -39.6761   20.6383 H   0  0  0  0  0  0  0  0  0  0  0  0
   23.6191  -39.5152   20.7471 H   0  0  0  0  0  0  0  0  0  0  0  0
   24.4416  -40.7354   22.6862 H   0  0  0  0  0  0  0  0  0  0  0  0
   23.5024  -41.8400   21.6259 H   0  0  0  0  0  0  0  0  0  0  0  0
   25.2975  -41.9058   21.6259 H   0  0  0  0  0  0  0  0  0  0  0  0
   16.1853  -43.2450   18.6389 H   0  0  0  0  0  0  0  0  0  0  0  0
   17.1578  -44.0140   19.9468 H   0  0  0  0  0  0  0  0  0  0  0  0
   15.1262  -42.7604   20.8234 H   0  0  0  0  0  0  0  0  0  0  0  0
   16.6771  -42.1335   21.4751 H   0  0  0  0  0  0  0  0  0  0  0  0
   15.1638  -40.3386   21.9818 H   0  0  0  0  0  0  0  0  0  0  0  0
   15.0842  -39.0224   20.7619 H   0  0  0  0  0  0  0  0  0  0  0  0
   13.8454  -40.3232   20.7619 H   0  0  0  0  0  0  0  0  0  0  0  0
   16.6956  -39.1737   19.1823 H   0  0  0  0  0  0  0  0  0  0  0  0
   17.6585  -40.0156   20.4279 H   0  0  0  0  0  0  0  0  0  0  0  0
   18.5532  -40.4759   18.1145 H   0  0  0  0  0  0  0  0  0  0  0  0
   16.9671  -41.1425   17.6299 H   0  0  0  0  0  0  0  0  0  0  0  0
  1  2  1  0
  2  3  1  0
  3  4  1  0
  4  5  2  0
  5  6  1  0
  6  7  1  0
  6  8  1  0
  8  9  1  0
  9 10  2  0
  9 11  1  0
 11 12  1  0
 12 13  2  0
  4 14  1  0
  8 14  2  0
 13 14  1  0
 12 15  1  0
 15 16  2  0
 16 17  1  0
 17 18  2  0
 18 19  1  0
 15 20  1  0
 19 20  2  0
 20 21  1  0
 21 22  1  0
 22 23  1  0
 17 24  1  0
 24 25  2  0
 24 26  2  0
 24 27  1  0
 27 28  1  0
 28 29  1  0
 29 30  1  0
 30 31  1  0
 30 32  1  0
 27 33  1  0
 32 33  1  0
  1 34  1  0
  1 35  1  0
  1 36  1  0
  2 37  1  0
  2 38  1  0
  3 39  1  0
  3 40  1  0
  7 41  1  0
  7 42  1  0
  7 43  1  0
 11 44  1  0
 16 45  1  0
 18 46  1  0
 19 47  1  0
 22 48  1  0
 22 49  1  0
 23 50  1  0
 23 51  1  0
 23 52  1  0
 28 53  1  0
 28 54  1  0
 29 55  1  0
 29 56  1  0
 31 57  1  0
 31 58  1  0
 31 59  1  0
 32 60  1  0
 32 61  1  0
 33 62  1  0
 33 63  1  0
M  END
$$$$
