PDB_DB06203_96
     RDKit          3D

 46 48  0  0  0  0  0  0  0  0999 V2000
   45.1690  -29.9920   27.6540 O   0  0  0  0  0  0  0  0  0  0  0  0
   44.2370  -29.6080   28.3970 C   0  0  0  0  0  0  0  0  0  0  0  0
   43.9200  -28.2870   28.4170 N   0  0  0  0  0  0  0  0  0  0  0  0
   44.6930  -27.3570   27.5670 C   0  0  0  0  0  0  0  0  0  0  0  0
   43.5750  -30.5010   29.1680 N   0  0  0  0  0  0  0  0  0  0  0  0
   43.9660  -31.9350   29.0980 C   0  0  0  0  0  0  0  0  0  0  0  0
   45.4070  -32.2310   29.5200 C   0  0  0  0  0  0  0  0  0  0  0  0
   45.9950  -31.7340   30.7080 C   0  0  0  0  0  0  0  0  0  0  0  0
   45.3580  -30.9620   31.5480 C   0  0  0  0  0  0  0  0  0  0  0  0
   44.7940  -30.2820   32.3200 N   0  0  0  0  0  0  0  0  0  0  0  0
   47.3280  -32.0710   31.0020 C   0  0  0  0  0  0  0  0  0  0  0  0
   48.0690  -32.9000   30.1420 C   0  0  0  0  0  0  0  0  0  0  0  0
   47.4750  -33.4150   28.9850 C   0  0  0  0  0  0  0  0  0  0  0  0
   46.1550  -33.0670   28.6870 C   0  0  0  0  0  0  0  0  0  0  0  0
   42.5510  -30.0680   29.9710 C   0  0  0  0  0  0  0  0  0  0  0  0
   42.2150  -28.7090   30.0110 C   0  0  0  0  0  0  0  0  0  0  0  0
   42.9230  -27.8350   29.2120 C   0  0  0  0  0  0  0  0  0  0  0  0
   42.6030  -26.6340   29.2510 O   0  0  0  0  0  0  0  0  0  0  0  0
   41.6650  -30.9190   30.6780 N   0  0  0  0  0  0  0  0  0  0  0  0
   41.3380  -30.6740   32.1050 C   0  0  0  0  0  0  0  0  0  0  0  0
   41.0430  -31.9420   32.9240 C   0  0  2  0  0  0  0  0  0  0  0  0
   42.2860  -32.6790   33.2710 N   0  0  0  0  0  0  0  0  0  0  0  0
   40.0800  -32.8540   32.1800 C   0  0  0  0  0  0  0  0  0  0  0  0
   40.5630  -33.1470   30.7650 C   0  0  0  0  0  0  0  0  0  0  0  0
   40.8180  -31.8860   29.9690 C   0  0  0  0  0  0  0  0  0  0  0  0
   45.2660  -26.6677   28.2046 H   0  0  0  0  0  0  0  0  0  0  0  0
   45.3849  -27.9297   26.9319 H   0  0  0  0  0  0  0  0  0  0  0  0
   44.0034  -26.7815   26.9319 H   0  0  0  0  0  0  0  0  0  0  0  0
   43.2933  -32.5051   29.7556 H   0  0  0  0  0  0  0  0  0  0  0  0
   43.8886  -32.2247   28.0397 H   0  0  0  0  0  0  0  0  0  0  0  0
   47.7972  -31.6807   31.9172 H   0  0  0  0  0  0  0  0  0  0  0  0
   49.1153  -33.1436   30.3787 H   0  0  0  0  0  0  0  0  0  0  0  0
   48.0392  -34.0846   28.3191 H   0  0  0  0  0  0  0  0  0  0  0  0
   45.6917  -33.4623   27.7710 H   0  0  0  0  0  0  0  0  0  0  0  0
   41.4065  -28.3473   30.6634 H   0  0  0  0  0  0  0  0  0  0  0  0
   42.1917  -30.1578   32.5683 H   0  0  0  0  0  0  0  0  0  0  0  0
   40.4143  -30.0768   32.1138 H   0  0  0  0  0  0  0  0  0  0  0  0
   40.5720  -31.6186   33.8640 H   0  0  0  0  0  0  0  0  0  0  0  0
   42.3781  -32.7336   34.2954 H   0  0  0  0  0  0  0  0  0  0  0  0
   42.2418  -33.6305   32.8790 H   0  0  0  0  0  0  0  0  0  0  0  0
   39.9901  -33.8025   32.7298 H   0  0  0  0  0  0  0  0  0  0  0  0
   39.1074  -32.3446   32.1124 H   0  0  0  0  0  0  0  0  0  0  0  0
   41.4984  -33.7229   30.8233 H   0  0  0  0  0  0  0  0  0  0  0  0
   39.7719  -33.7131   30.2515 H   0  0  0  0  0  0  0  0  0  0  0  0
   39.8513  -31.4094   29.7489 H   0  0  0  0  0  0  0  0  0  0  0  0
   41.3510  -32.1788   29.0524 H   0  0  0  0  0  0  0  0  0  0  0  0
  1  2  2  0
  2  3  1  0
  3  4  1  0
  2  5  1  0
  5  6  1  0
  6  7  1  0
  7  8  2  0
  8  9  1  0
  9 10  3  0
  8 11  1  0
 11 12  2  0
 12 13  1  0
  7 14  1  0
 13 14  2  0
  5 15  1  0
 15 16  2  0
  3 17  1  0
 16 17  1  0
 17 18  2  0
 15 19  1  0
 19 20  1  0
 20 21  1  0
 21 22  1  0
 21 23  1  0
 23 24  1  0
 19 25  1  0
 24 25  1  0
  4 26  1  0
  4 27  1  0
  4 28  1  0
  6 29  1  0
  6 30  1  0
 11 31  1  0
 12 32  1  0
 13 33  1  0
 14 34  1  0
 16 35  1  0
 20 36  1  0
 20 37  1  0
 21 38  1  1
 22 39  1  0
 22 40  1  0
 23 41  1  0
 23 42  1  0
 24 43  1  0
 24 44  1  0
 25 45  1  0
 25 46  1  0
M  END
$$$$
