PDB_DB00642_90
     RDKit          3D

 52 54  0  0  0  0  0  0  0  0999 V2000
    6.3680   -1.5870  -19.5360 C   0  0  0  0  0  0  0  0  0  0  0  0
    6.1510   -1.9930  -18.2140 C   0  0  0  0  0  0  0  0  0  0  0  0
    5.4290   -3.1570  -17.9460 C   0  0  0  0  0  0  0  0  0  0  0  0
    4.9450   -3.9490  -19.0030 C   0  0  0  0  0  0  0  0  0  0  0  0
    5.1510   -3.5360  -20.3280 C   0  0  0  0  0  0  0  0  0  0  0  0
    5.8570   -2.3520  -20.5880 C   0  0  0  0  0  0  0  0  0  0  0  0
    7.1530   -0.3060  -19.8000 C   0  0  0  0  0  0  0  0  0  0  0  0
    8.4320   -0.5560  -20.5900 C   0  0  0  0  0  0  0  0  0  0  0  0
    9.5280   -1.1730  -19.7400 C   0  0  0  0  0  0  0  0  0  0  0  0
   10.0740   -0.6480  -18.5550 C   0  0  0  0  0  0  0  0  0  0  0  0
   11.0530   -1.4620  -18.0800 N   0  0  0  0  0  0  0  0  0  0  0  0
   11.1270   -2.4910  -18.9690 C   0  0  0  0  0  0  0  0  0  0  0  0
   10.2220   -2.3470  -20.0010 C   0  0  0  0  0  0  0  0  0  0  0  0
   10.2110   -3.4220  -21.0350 C   0  0  0  0  0  0  0  0  0  0  0  0
    9.4500   -3.4050  -22.0280 O   0  0  0  0  0  0  0  0  0  0  0  0
   11.0800   -4.4420  -20.8870 N   0  0  0  0  0  0  0  0  0  0  0  0
   11.9500   -4.5090  -19.8350 C   0  0  0  0  0  0  0  0  0  0  0  0
   11.9700   -3.5470  -18.8910 N   0  0  0  0  0  0  0  0  0  0  0  0
   12.8280   -5.5540  -19.7200 N   0  0  0  0  0  0  0  0  0  0  0  0
    4.1480   -5.1910  -18.6890 C   0  0  0  0  0  0  0  0  0  0  0  0
    3.1470   -5.4220  -19.3620 O   0  0  0  0  0  0  0  0  0  0  0  0
    4.5140   -5.9960  -17.6830 N   0  0  0  0  0  0  0  0  0  0  0  0
    3.7490   -7.1770  -17.3060 C   0  0  1  0  0  0  0  0  0  0  0  0
    4.1860   -8.3510  -18.1780 C   0  0  0  0  0  0  0  0  0  0  0  0
    3.0790   -9.4060  -18.1730 C   0  0  0  0  0  0  0  0  0  0  0  0
    3.5400  -10.8120  -18.5150 C   0  0  0  0  0  0  0  0  0  0  0  0
    3.1000  -11.7790  -17.8410 O   0  0  0  0  0  0  0  0  0  0  0  0
    4.3350  -10.9890  -19.4650 O   0  0  0  0  0  0  0  0  0  0  0  0
    4.0180   -7.4930  -15.8720 C   0  0  0  0  0  0  0  0  0  0  0  0
    5.1050   -7.0800  -15.4030 O   0  0  0  0  0  0  0  0  0  0  0  0
    3.2080   -8.1950  -15.2220 O   0  0  0  0  0  0  0  0  0  0  0  0
    6.5509   -1.3926  -17.3836 H   0  0  0  0  0  0  0  0  0  0  0  0
    5.2378   -3.4560  -16.9048 H   0  0  0  0  0  0  0  0  0  0  0  0
    4.7599   -4.1390  -21.1607 H   0  0  0  0  0  0  0  0  0  0  0  0
    6.0094   -2.0236  -21.6267 H   0  0  0  0  0  0  0  0  0  0  0  0
    6.5162    0.3865  -20.3701 H   0  0  0  0  0  0  0  0  0  0  0  0
    7.4399    0.1163  -18.8256 H   0  0  0  0  0  0  0  0  0  0  0  0
    8.2049   -1.2381  -21.4226 H   0  0  0  0  0  0  0  0  0  0  0  0
    8.7970    0.4164  -20.9524 H   0  0  0  0  0  0  0  0  0  0  0  0
    9.7534    0.2905  -18.0791 H   0  0  0  0  0  0  0  0  0  0  0  0
   11.6183   -1.3291  -17.2293 H   0  0  0  0  0  0  0  0  0  0  0  0
   12.6316   -3.6160  -18.1046 H   0  0  0  0  0  0  0  0  0  0  0  0
   13.4792   -5.5942  -18.9230 H   0  0  0  0  0  0  0  0  0  0  0  0
   12.8371   -6.2996  -20.4306 H   0  0  0  0  0  0  0  0  0  0  0  0
    5.3696   -5.7713  -17.1554 H   0  0  0  0  0  0  0  0  0  0  0  0
    2.6738   -6.9925  -17.4475 H   0  0  0  0  0  0  0  0  0  0  0  0
    4.3605   -8.0028  -19.2067 H   0  0  0  0  0  0  0  0  0  0  0  0
    5.1172   -8.7838  -17.7836 H   0  0  0  0  0  0  0  0  0  0  0  0
    2.6307   -9.4273  -17.1687 H   0  0  0  0  0  0  0  0  0  0  0  0
    2.3673   -9.1129  -18.9589 H   0  0  0  0  0  0  0  0  0  0  0  0
    3.3906  -12.7018  -18.0511 H   0  0  0  0  0  0  0  0  0  0  0  0
    5.3365   -7.2603  -14.4575 H   0  0  0  0  0  0  0  0  0  0  0  0
  1  2  2  0
  2  3  1  0
  3  4  2  0
  4  5  1  0
  1  6  1  0
  5  6  2  0
  1  7  1  0
  7  8  1  0
  8  9  1  0
  9 10  2  0
 10 11  1  0
 11 12  1  0
  9 13  1  0
 12 13  2  0
 13 14  1  0
 14 15  2  0
 14 16  1  0
 16 17  2  0
 12 18  1  0
 17 18  1  0
 17 19  1  0
  4 20  1  0
 20 21  2  0
 20 22  1  0
 22 23  1  0
 23 24  1  0
 24 25  1  0
 25 26  1  0
 26 27  1  0
 26 28  2  0
 23 29  1  0
 29 30  1  0
 29 31  2  0
  2 32  1  0
  3 33  1  0
  5 34  1  0
  6 35  1  0
  7 36  1  0
  7 37  1  0
  8 38  1  0
  8 39  1  0
 10 40  1  0
 11 41  1  0
 18 42  1  0
 19 43  1  0
 19 44  1  0
 22 45  1  0
 23 46  1  1
 24 47  1  0
 24 48  1  0
 25 49  1  0
 25 50  1  0
 27 51  1  0
 30 52  1  0
M  END
$$$$
