PDB_DB00615_98
     RDKit          3D

123128  0  0  0  0  0  0  0  0999 V2000
  136.2450  122.1180   40.9270 C   0  0  0  0  0  0  0  0  0  0  0  0
  136.7370  120.7220   40.5780 C   0  0  0  0  0  0  0  0  0  0  0  0
  138.1880  120.4030   40.6610 C   0  0  0  0  0  0  0  0  0  0  0  0
  139.1340  121.3650   41.1370 C   0  0  0  0  0  0  0  0  0  0  0  0
  139.7170  123.8110   41.9290 C   0  0  0  0  0  0  0  0  0  0  0  0
  139.2330  125.1890   42.1670 C   0  0  0  0  0  0  0  0  0  0  0  0
  137.8920  125.6450   42.1420 C   0  0  0  0  0  0  0  0  0  0  0  0
  136.8100  124.6010   41.7960 C   0  0  0  0  0  0  0  0  0  0  0  0
  137.2550  123.1390   41.4150 C   0  0  0  0  0  0  0  0  0  0  0  0
  138.7470  122.7260   41.5070 C   0  0  0  0  0  0  0  0  0  0  0  0
  141.1050  123.8350   42.1380 C   0  0  0  0  0  0  0  0  0  0  0  0
  141.5340  125.2760   42.3760 C   0  0  2  0  0  0  0  0  0  0  0  0
  142.3020  125.4970   43.6400 C   0  0  0  0  0  0  0  0  0  0  0  0
  137.4820  127.0740   42.4110 C   0  0  0  0  0  0  0  0  0  0  0  0
  134.5320  119.3720   40.2780 C   0  0  0  0  0  0  0  0  0  0  0  0
  134.1060  118.0840   39.6390 C   0  0  0  0  0  0  0  0  0  0  0  0
  133.8090  117.8870   38.2800 C   0  0  0  0  0  0  0  0  0  0  0  0
  133.8440  118.8030   37.0870 C   0  0  0  0  0  0  0  0  0  0  0  0
  134.8410  118.7230   36.1650 C   0  0  0  0  0  0  0  0  0  0  0  0
  135.0710  119.5340   34.8850 C   0  0  1  0  0  0  0  0  0  0  0  0
  135.9930  120.8170   35.0990 C   0  0  1  0  0  0  0  0  0  0  0  0
  136.9270  121.3760   33.9370 C   0  0  2  0  0  0  0  0  0  0  0  0
  137.8110  122.6070   34.3230 C   0  0  2  0  0  0  0  0  0  0  0  0
  138.7810  122.5430   35.5790 C   0  0  2  0  0  0  0  0  0  0  0  0
  139.5120  123.9760   35.8440 C   0  0  1  0  0  0  0  0  0  0  0  0
  139.9140  124.3190   37.3270 C   0  0  1  0  0  0  0  0  0  0  0  0
  140.6370  125.7350   37.5340 C   0  0  2  0  0  0  0  0  0  0  0  0
  141.1030  126.0520   39.0170 C   0  0  0  0  0  0  0  0  0  0  0  0
  142.0920  125.4310   39.7220 C   0  0  0  0  0  0  0  0  0  0  0  0
  134.0240  116.9520   40.6380 C   0  0  0  0  0  0  0  0  0  0  0  0
  135.6280  118.4590   33.8820 C   0  0  0  0  0  0  0  0  0  0  0  0
  136.1240  121.7610   32.6270 C   0  0  0  0  0  0  0  0  0  0  0  0
  139.8190  121.3930   35.4760 C   0  0  0  0  0  0  0  0  0  0  0  0
  138.6490  124.2130   38.1490 C   0  0  0  0  0  0  0  0  0  0  0  0
  140.6680  124.8480   33.7940 C   0  0  0  0  0  0  0  0  0  0  0  0
  141.9520  124.8320   33.1030 C   0  0  0  0  0  0  0  0  0  0  0  0
  139.1280  127.8210   37.9530 C   0  0  0  0  0  0  0  0  0  0  0  0
  140.2240  119.5600   40.6440 C   0  0  0  0  0  0  0  0  0  0  0  0
  141.0530  119.3820   39.3160 C   0  0  0  0  0  0  0  0  0  0  0  0
  140.7950  118.6780   41.8550 C   0  0  0  0  0  0  0  0  0  0  0  0
  142.1540  118.2930   39.1620 C   0  0  0  0  0  0  0  0  0  0  0  0
  141.9960  117.6920   41.6850 C   0  0  0  0  0  0  0  0  0  0  0  0
  144.0890  117.1020   40.3340 C   0  0  0  0  0  0  0  0  0  0  0  0
  145.4430  117.5170   40.8800 C   0  0  0  0  0  0  0  0  0  0  0  0
  145.7130  116.7930   42.1970 C   0  0  0  0  0  0  0  0  0  0  0  0
  146.5340  117.1830   39.8620 C   0  0  0  0  0  0  0  0  0  0  0  0
  135.8720  119.6340   40.1180 N   0  0  0  0  0  0  0  0  0  0  0  0
  138.9110  119.2740   40.4520 N   0  0  0  0  0  0  0  0  0  0  0  0
  140.3220  120.8560   40.9950 N   0  0  0  0  0  0  0  0  0  0  0  0
  142.9440  118.1160   40.5060 N   0  0  0  0  0  0  0  0  0  0  0  0
  134.9620  122.4510   40.7840 O   0  0  0  0  0  0  0  0  0  0  0  0
  135.5670  124.9180   41.8250 O   0  0  0  0  0  0  0  0  0  0  0  0
  140.2820  126.0490   42.4090 O   0  0  0  0  0  0  0  0  0  0  0  0
  141.9770  122.9240   42.1230 O   0  0  0  0  0  0  0  0  0  0  0  0
  142.4160  125.7950   41.1710 O   0  0  0  0  0  0  0  0  0  0  0  0
  139.6650  126.8410   36.9750 O   0  0  0  0  0  0  0  0  0  0  0  0
  140.6920  124.0870   34.9610 O   0  0  0  0  0  0  0  0  0  0  0  0
  139.7100  125.4300   33.4160 O   0  0  0  0  0  0  0  0  0  0  0  0
  136.9630  123.7800   34.5380 O   0  0  0  0  0  0  0  0  0  0  0  0
  135.1040  121.8490   35.5870 O   0  0  0  0  0  0  0  0  0  0  0  0
  133.7300  120.0530   40.8630 O   0  0  0  0  0  0  0  0  0  0  0  0
  141.6479  125.3088   44.5041 H   0  0  0  0  0  0  0  0  0  0  0  0
  143.1599  124.8093   43.6728 H   0  0  0  0  0  0  0  0  0  0  0  0
  142.6631  126.5355   43.6728 H   0  0  0  0  0  0  0  0  0  0  0  0
  137.4334  127.2433   43.4968 H   0  0  0  0  0  0  0  0  0  0  0  0
  138.2203  127.7573   41.9660 H   0  0  0  0  0  0  0  0  0  0  0  0
  136.4937  127.2619   41.9660 H   0  0  0  0  0  0  0  0  0  0  0  0
  133.4880  116.8623   38.0415 H   0  0  0  0  0  0  0  0  0  0  0  0
  133.0484  119.5515   36.9579 H   0  0  0  0  0  0  0  0  0  0  0  0
  135.6018  117.9555   36.3704 H   0  0  0  0  0  0  0  0  0  0  0  0
  134.1580  120.0103   34.4983 H   0  0  0  0  0  0  0  0  0  0  0  0
  136.7830  120.4786   35.7856 H   0  0  0  0  0  0  0  0  0  0  0  0
  137.5924  120.5206   33.7485 H   0  0  0  0  0  0  0  0  0  0  0  0
  138.4834  122.6395   33.4530 H   0  0  0  0  0  0  0  0  0  0  0  0
  138.1467  122.3193   36.4494 H   0  0  0  0  0  0  0  0  0  0  0  0
  138.7394  124.7238   35.6117 H   0  0  0  0  0  0  0  0  0  0  0  0
  140.6843  123.6036   37.6507 H   0  0  0  0  0  0  0  0  0  0  0  0
  141.5875  125.7118   36.9808 H   0  0  0  0  0  0  0  0  0  0  0  0
  140.5692  126.8628   39.5343 H   0  0  0  0  0  0  0  0  0  0  0  0
  142.6773  124.6400   39.2303 H   0  0  0  0  0  0  0  0  0  0  0  0
  134.0536  117.3609   41.6587 H   0  0  0  0  0  0  0  0  0  0  0  0
  133.0836  116.4007   40.4910 H   0  0  0  0  0  0  0  0  0  0  0  0
  134.8752  116.2709   40.4910 H   0  0  0  0  0  0  0  0  0  0  0  0
  136.0623  117.6209   34.4467 H   0  0  0  0  0  0  0  0  0  0  0  0
  134.8083  118.0888   33.2488 H   0  0  0  0  0  0  0  0  0  0  0  0
  136.4032  118.9152   33.2488 H   0  0  0  0  0  0  0  0  0  0  0  0
  135.1647  122.2209   32.9068 H   0  0  0  0  0  0  0  0  0  0  0  0
  136.7131  122.4746   32.0322 H   0  0  0  0  0  0  0  0  0  0  0  0
  135.9365  120.8548   32.0322 H   0  0  0  0  0  0  0  0  0  0  0  0
  140.1102  121.0703   36.4865 H   0  0  0  0  0  0  0  0  0  0  0  0
  139.3744  120.5452   34.9343 H   0  0  0  0  0  0  0  0  0  0  0  0
  140.7078  121.7487   34.9343 H   0  0  0  0  0  0  0  0  0  0  0  0
  138.9040  124.2344   39.2188 H   0  0  0  0  0  0  0  0  0  0  0  0
  137.9864  125.0588   37.9130 H   0  0  0  0  0  0  0  0  0  0  0  0
  138.1364  123.2688   37.9130 H   0  0  0  0  0  0  0  0  0  0  0  0
  142.7663  124.8219   33.8425 H   0  0  0  0  0  0  0  0  0  0  0  0
  142.0180  123.9330   32.4726 H   0  0  0  0  0  0  0  0  0  0  0  0
  142.0404  125.7291   32.4726 H   0  0  0  0  0  0  0  0  0  0  0  0
  139.3236  127.4640   38.9749 H   0  0  0  0  0  0  0  0  0  0  0  0
  139.6189  128.7941   37.8043 H   0  0  0  0  0  0  0  0  0  0  0  0
  138.0437  127.9309   37.8043 H   0  0  0  0  0  0  0  0  0  0  0  0
  140.3186  119.1899   38.5199 H   0  0  0  0  0  0  0  0  0  0  0  0
  141.6449  120.3089   39.2915 H   0  0  0  0  0  0  0  0  0  0  0  0
  141.0941  119.3912   42.6373 H   0  0  0  0  0  0  0  0  0  0  0  0
  139.9607  117.9857   42.0415 H   0  0  0  0  0  0  0  0  0  0  0  0
  141.6821  117.3370   38.8909 H   0  0  0  0  0  0  0  0  0  0  0  0
  142.8562  118.6060   38.3753 H   0  0  0  0  0  0  0  0  0  0  0  0
  142.5767  117.6754   42.6191 H   0  0  0  0  0  0  0  0  0  0  0  0
  141.5883  116.6973   41.4519 H   0  0  0  0  0  0  0  0  0  0  0  0
  144.2067  116.9089   39.2575 H   0  0  0  0  0  0  0  0  0  0  0  0
  143.7923  116.2221   40.9237 H   0  0  0  0  0  0  0  0  0  0  0  0
  145.4450  118.6017   41.0630 H   0  0  0  0  0  0  0  0  0  0  0  0
  145.4653  117.4573   43.0381 H   0  0  0  0  0  0  0  0  0  0  0  0
  145.0926  115.8863   42.2508 H   0  0  0  0  0  0  0  0  0  0  0  0
  146.7756  116.5139   42.2508 H   0  0  0  0  0  0  0  0  0  0  0  0
  147.4558  116.9008   40.3917 H   0  0  0  0  0  0  0  0  0  0  0  0
  146.2026  116.3452   39.2310 H   0  0  0  0  0  0  0  0  0  0  0  0
  146.7284  118.0628   39.2310 H   0  0  0  0  0  0  0  0  0  0  0  0
  136.3671  118.9216   39.5628 H   0  0  0  0  0  0  0  0  0  0  0  0
  138.5278  118.3542   40.1914 H   0  0  0  0  0  0  0  0  0  0  0  0
  134.8785  124.2425   41.6017 H   0  0  0  0  0  0  0  0  0  0  0  0
  136.8521  123.9334   35.5097 H   0  0  0  0  0  0  0  0  0  0  0  0
  135.1067  121.8459   36.5770 H   0  0  0  0  0  0  0  0  0  0  0  0
  1  2  1  0
  2  3  2  0
  3  4  1  0
  5  6  2  0
  6  7  1  0
  7  8  2  0
  1  9  1  0
  8  9  1  0
  4 10  1  0
  5 10  1  0
  9 10  2  0
  5 11  1  0
 11 12  1  0
 12 13  1  1
  7 14  1  0
 15 16  1  0
 16 17  2  0
 17 18  1  0
 18 19  2  0
 19 20  1  0
 20 21  1  0
 21 22  1  0
 22 23  1  0
 23 24  1  0
 24 25  1  0
 25 26  1  0
 26 27  1  0
 27 28  1  0
 28 29  2  0
 16 30  1  0
 20 31  1  0
 22 32  1  0
 24 33  1  0
 26 34  1  0
 35 36  1  0
 38 39  1  0
 38 40  1  0
 39 41  1  0
 40 42  1  0
 43 44  1  0
 44 45  1  0
 44 46  1  0
  2 47  1  0
 15 47  1  0
  3 48  1  0
 38 48  1  0
  4 49  2  0
 38 49  1  0
 41 50  1  0
 42 50  1  0
 43 50  1  0
  1 51  2  0
  8 52  1  0
  6 53  1  0
 12 53  1  0
 11 54  2  0
 12 55  1  0
 29 55  1  0
 27 56  1  0
 37 56  1  0
 25 57  1  0
 35 57  1  0
 35 58  2  0
 23 59  1  0
 21 60  1  0
 15 61  2  0
 13 62  1  0
 13 63  1  0
 13 64  1  0
 14 65  1  0
 14 66  1  0
 14 67  1  0
 17 68  1  0
 18 69  1  0
 19 70  1  0
 20 71  1  6
 21 72  1  1
 22 73  1  6
 23 74  1  6
 24 75  1  1
 25 76  1  6
 26 77  1  1
 27 78  1  6
 28 79  1  0
 29 80  1  0
 30 81  1  0
 30 82  1  0
 30 83  1  0
 31 84  1  0
 31 85  1  0
 31 86  1  0
 32 87  1  0
 32 88  1  0
 32 89  1  0
 33 90  1  0
 33 91  1  0
 33 92  1  0
 34 93  1  0
 34 94  1  0
 34 95  1  0
 36 96  1  0
 36 97  1  0
 36 98  1  0
 37 99  1  0
 37100  1  0
 37101  1  0
 39102  1  0
 39103  1  0
 40104  1  0
 40105  1  0
 41106  1  0
 41107  1  0
 42108  1  0
 42109  1  0
 43110  1  0
 43111  1  0
 44112  1  0
 45113  1  0
 45114  1  0
 45115  1  0
 46116  1  0
 46117  1  0
 46118  1  0
 47119  1  0
 48120  1  0
 52121  1  0
 59122  1  0
 60123  1  0
M  END
$$$$
