PDB_DB01283_99
     RDKit          3D

 33 34  0  0  0  0  0  0  0  0999 V2000
  -17.6450   38.1710   27.9330 O   0  0  0  0  0  0  0  0  0  0  0  0
  -16.8490   38.8740   27.3340 C   0  0  0  0  0  0  0  0  0  0  0  0
  -15.9400   39.5580   28.0230 O   0  0  0  0  0  0  0  0  0  0  0  0
  -16.8980   38.9750   25.8320 C   0  0  0  0  0  0  0  0  0  0  0  0
  -17.4930   40.3050   25.4400 C   0  0  0  0  0  0  0  0  0  0  0  0
  -18.8360   40.4070   25.1100 C   0  0  0  0  0  0  0  0  0  0  0  0
  -19.3650   41.6410   24.7500 C   0  0  0  0  0  0  0  0  0  0  0  0
  -20.8240   41.7410   24.3930 C   0  0  0  0  0  0  0  0  0  0  0  0
  -18.5620   42.7800   24.7140 C   0  0  0  0  0  0  0  0  0  0  0  0
  -17.2100   42.7280   25.0420 C   0  0  0  0  0  0  0  0  0  0  0  0
  -16.6380   41.5160   25.4060 C   0  0  0  0  0  0  0  0  0  0  0  0
  -15.3290   41.4100   25.7310 N   0  0  0  0  0  0  0  0  0  0  0  0
  -14.4420   42.4170   25.5670 C   0  0  0  0  0  0  0  0  0  0  0  0
  -13.7980   43.0570   26.7370 C   0  0  0  0  0  0  0  0  0  0  0  0
  -14.2020   42.5100   28.3960 Cl  0  0  0  0  0  0  0  0  0  0  0  0
  -12.8830   44.0820   26.5340 C   0  0  0  0  0  0  0  0  0  0  0  0
  -12.5650   44.5100   25.2460 C   0  0  0  0  0  0  0  0  0  0  0  0
  -13.1390   43.9370   24.1110 C   0  0  0  0  0  0  0  0  0  0  0  0
  -14.0630   42.9040   24.2190 C   0  0  0  0  0  0  0  0  0  0  0  0
  -14.6130   42.3590   23.1210 F   0  0  0  0  0  0  0  0  0  0  0  0
  -15.2881   40.1323   27.5483 H   0  0  0  0  0  0  0  0  0  0  0  0
  -15.8793   38.8941   25.4250 H   0  0  0  0  0  0  0  0  0  0  0  0
  -17.5180   38.1610   25.4283 H   0  0  0  0  0  0  0  0  0  0  0  0
  -19.4798   39.5154   25.1330 H   0  0  0  0  0  0  0  0  0  0  0  0
  -21.4247   41.7822   25.3136 H   0  0  0  0  0  0  0  0  0  0  0  0
  -20.9953   42.6530   23.8023 H   0  0  0  0  0  0  0  0  0  0  0  0
  -21.1181   40.8609   23.8023 H   0  0  0  0  0  0  0  0  0  0  0  0
  -19.0069   43.7420   24.4196 H   0  0  0  0  0  0  0  0  0  0  0  0
  -16.5983   43.6418   25.0130 H   0  0  0  0  0  0  0  0  0  0  0  0
  -14.9919   40.5189   26.1224 H   0  0  0  0  0  0  0  0  0  0  0  0
  -12.4035   44.5618   27.4000 H   0  0  0  0  0  0  0  0  0  0  0  0
  -11.8380   45.3259   25.1206 H   0  0  0  0  0  0  0  0  0  0  0  0
  -12.8561   44.3084   23.1150 H   0  0  0  0  0  0  0  0  0  0  0  0
  1  2  2  0
  2  3  1  0
  2  4  1  0
  4  5  1  0
  5  6  2  0
  6  7  1  0
  7  8  1  0
  7  9  2  0
  9 10  1  0
  5 11  1  0
 10 11  2  0
 11 12  1  0
 12 13  1  0
 13 14  2  0
 14 15  1  0
 14 16  1  0
 16 17  2  0
 17 18  1  0
 13 19  1  0
 18 19  2  0
 19 20  1  0
  3 21  1  0
  4 22  1  0
  4 23  1  0
  6 24  1  0
  8 25  1  0
  8 26  1  0
  8 27  1  0
  9 28  1  0
 10 29  1  0
 12 30  1  0
 16 31  1  0
 17 32  1  0
 18 33  1  0
M  END
$$$$
