PDB_DB08877_98
     RDKit          3D

 41 44  0  0  0  0  0  0  0  0999 V2000
   -4.9310   57.5950   39.0090 C   0  0  0  0  0  0  0  0  0  0  0  0
   -5.8510   58.1690   37.8310 C   0  0  0  0  0  0  0  0  0  0  0  0
   -6.2780   59.4080   38.2280 C   0  0  0  0  0  0  0  0  0  0  0  0
   -5.2870   59.9020   39.4640 C   0  0  0  0  0  0  0  0  0  0  0  0
   -4.8190   58.7660   40.0860 C   0  0  0  0  0  0  0  0  0  0  0  0
   -5.5770   58.4410   41.4050 C   0  0  1  0  0  0  0  0  0  0  0  0
   -5.2750   59.5250   42.4400 C   0  0  0  0  0  0  0  0  0  0  0  0
   -4.2870   59.0560   43.5160 C   0  0  0  0  0  0  0  0  0  0  0  0
   -3.5970   57.9010   43.0650 N   0  0  0  0  0  0  0  0  0  0  0  0
   -6.9830   58.3310   41.2230 N   0  0  0  0  0  0  0  0  0  0  0  0
   -7.8800   59.2120   41.6770 C   0  0  0  0  0  0  0  0  0  0  0  0
   -7.5800   57.3530   40.6000 N   0  0  0  0  0  0  0  0  0  0  0  0
   -8.9030   57.5310   40.5920 C   0  0  0  0  0  0  0  0  0  0  0  0
   -9.1710   58.7310   41.2960 C   0  0  0  0  0  0  0  0  0  0  0  0
  -10.5050   59.3690   41.5270 C   0  0  0  0  0  0  0  0  0  0  0  0
  -10.6440   60.4800   42.2820 N   0  0  0  0  0  0  0  0  0  0  0  0
  -11.8320   61.0530   42.4530 C   0  0  0  0  0  0  0  0  0  0  0  0
  -12.9300   60.5670   41.8800 N   0  0  0  0  0  0  0  0  0  0  0  0
  -12.8790   59.4400   41.0790 C   0  0  0  0  0  0  0  0  0  0  0  0
  -11.6670   58.8100   40.8680 C   0  0  0  0  0  0  0  0  0  0  0  0
  -11.9320   57.6850   39.9880 C   0  0  0  0  0  0  0  0  0  0  0  0
  -13.3020   57.7300   39.7340 C   0  0  0  0  0  0  0  0  0  0  0  0
  -13.8340   58.7580   40.3850 N   0  0  0  0  0  0  0  0  0  0  0  0
   -5.3957   56.7050   39.4584 H   0  0  0  0  0  0  0  0  0  0  0  0
   -3.9410   57.2921   38.6373 H   0  0  0  0  0  0  0  0  0  0  0  0
   -5.2687   58.2495   36.9012 H   0  0  0  0  0  0  0  0  0  0  0  0
   -6.7039   57.5020   37.6367 H   0  0  0  0  0  0  0  0  0  0  0  0
   -6.2125   60.1152   37.3880 H   0  0  0  0  0  0  0  0  0  0  0  0
   -7.3254   59.3693   38.5618 H   0  0  0  0  0  0  0  0  0  0  0  0
   -4.4458   60.4863   39.0627 H   0  0  0  0  0  0  0  0  0  0  0  0
   -5.8342   60.5399   40.1737 H   0  0  0  0  0  0  0  0  0  0  0  0
   -3.7768   58.9033   40.4101 H   0  0  0  0  0  0  0  0  0  0  0  0
   -5.2222   57.4600   41.7539 H   0  0  0  0  0  0  0  0  0  0  0  0
   -4.8453   60.3956   41.9229 H   0  0  0  0  0  0  0  0  0  0  0  0
   -6.2201   59.7770   42.9433 H   0  0  0  0  0  0  0  0  0  0  0  0
   -7.6651   60.1334   42.2380 H   0  0  0  0  0  0  0  0  0  0  0  0
   -9.6471   56.8688   40.1254 H   0  0  0  0  0  0  0  0  0  0  0  0
  -11.9086   61.9509   43.0838 H   0  0  0  0  0  0  0  0  0  0  0  0
  -11.2061   56.9533   39.6038 H   0  0  0  0  0  0  0  0  0  0  0  0
  -13.8549   57.0254   39.0953 H   0  0  0  0  0  0  0  0  0  0  0  0
  -14.8334   59.0066   40.3679 H   0  0  0  0  0  0  0  0  0  0  0  0
  1  2  1  0
  2  3  1  0
  3  4  1  0
  1  5  1  0
  4  5  1  0
  5  6  1  0
  6  7  1  0
  7  8  1  0
  8  9  3  0
  6 10  1  0
 10 11  1  0
 10 12  1  0
 12 13  2  0
 11 14  2  0
 13 14  1  0
 14 15  1  0
 15 16  2  0
 16 17  1  0
 17 18  2  0
 18 19  1  0
 15 20  1  0
 19 20  2  0
 20 21  1  0
 21 22  2  0
 19 23  1  0
 22 23  1  0
  1 24  1  0
  1 25  1  0
  2 26  1  0
  2 27  1  0
  3 28  1  0
  3 29  1  0
  4 30  1  0
  4 31  1  0
  5 32  1  0
  6 33  1  1
  7 34  1  0
  7 35  1  0
 11 36  1  0
 13 37  1  0
 17 38  1  0
 21 39  1  0
 22 40  1  0
 23 41  1  0
M  END
$$$$
