PDB_DB08910_93
     RDKit          3D

 31 33  0  0  0  0  0  0  0  0999 V2000
   22.4330   19.5500   30.7580 C   0  0  0  0  0  0  0  0  0  0  0  0
   23.7380   19.9790   30.4170 C   0  0  0  0  0  0  0  0  0  0  0  0
   24.5210   19.1960   29.5810 C   0  0  0  0  0  0  0  0  0  0  0  0
   24.0360   17.9250   29.1580 C   0  0  0  0  0  0  0  0  0  0  0  0
   22.7970   17.4870   29.5050 C   0  0  0  0  0  0  0  0  0  0  0  0
   21.9890   18.2740   30.3450 C   0  0  0  0  0  0  0  0  0  0  0  0
   24.5770   16.9650   28.2740 C   0  0  0  0  0  0  0  0  0  0  0  0
   23.7450   15.8930   28.1130 N   0  0  0  0  0  0  0  0  0  0  0  0
   22.7540   16.2140   28.8450 C   0  0  0  0  0  0  0  0  0  0  0  0
   20.8010   17.7870   30.6580 N   0  0  0  0  0  0  0  0  0  0  0  0
   21.6170   15.4700   28.8650 O   0  0  0  0  0  0  0  0  0  0  0  0
   23.8860   14.8260   27.2080 C   0  0  1  0  0  0  0  0  0  0  0  0
   25.7500   16.9770   27.6220 O   0  0  0  0  0  0  0  0  0  0  0  0
   24.0260   13.5260   27.9730 C   0  0  0  0  0  0  0  0  0  0  0  0
   22.7660   14.6010   26.2390 C   0  0  0  0  0  0  0  0  0  0  0  0
   22.3870   13.3990   25.7580 N   0  0  0  0  0  0  0  0  0  0  0  0
   23.1030   12.2830   26.0440 C   0  0  0  0  0  0  0  0  0  0  0  0
   24.2140   12.3290   26.9930 C   0  0  0  0  0  0  0  0  0  0  0  0
   22.1300   15.6350   25.8650 O   0  0  0  0  0  0  0  0  0  0  0  0
   22.7920   11.2620   25.4710 O   0  0  0  0  0  0  0  0  0  0  0  0
   21.7691   20.2056   31.3406 H   0  0  0  0  0  0  0  0  0  0  0  0
   24.1293   20.9279   30.8126 H   0  0  0  0  0  0  0  0  0  0  0  0
   25.5067   19.5531   29.2480 H   0  0  0  0  0  0  0  0  0  0  0  0
   20.5261   16.8498   30.3310 H   0  0  0  0  0  0  0  0  0  0  0  0
   20.1499   18.3447   31.2290 H   0  0  0  0  0  0  0  0  0  0  0  0
   24.7695   15.1179   26.6213 H   0  0  0  0  0  0  0  0  0  0  0  0
   24.9005   13.5900   28.6371 H   0  0  0  0  0  0  0  0  0  0  0  0
   23.1116   13.3614   28.5618 H   0  0  0  0  0  0  0  0  0  0  0  0
   21.5458   13.3280   25.1679 H   0  0  0  0  0  0  0  0  0  0  0  0
   25.1585   12.4530   26.4429 H   0  0  0  0  0  0  0  0  0  0  0  0
   24.2383   11.3913   27.5675 H   0  0  0  0  0  0  0  0  0  0  0  0
  1  2  2  0
  2  3  1  0
  3  4  2  0
  4  5  1  0
  1  6  1  0
  5  6  2  0
  4  7  1  0
  7  8  1  0
  5  9  1  0
  8  9  1  0
  6 10  1  0
  9 11  2  0
  8 12  1  0
  7 13  2  0
 12 14  1  0
 12 15  1  0
 15 16  1  0
 16 17  1  0
 14 18  1  0
 17 18  1  0
 15 19  2  0
 17 20  2  0
  1 21  1  0
  2 22  1  0
  3 23  1  0
 10 24  1  0
 10 25  1  0
 12 26  1  6
 14 27  1  0
 14 28  1  0
 16 29  1  0
 18 30  1  0
 18 31  1  0
M  END
$$$$
