PDB_DB00127_97
     RDKit          3D

 40 39  0  0  0  0  0  0  0  0999 V2000
   47.3190  -12.5200    3.4480 N   0  0  0  0  0  0  0  0  0  0  0  0
   45.9300  -13.0420    3.4620 C   0  0  0  0  0  0  0  0  0  0  0  0
   44.7300  -12.0610    3.3450 C   0  0  0  0  0  0  0  0  0  0  0  0
   43.4970  -12.7160    2.7150 C   0  0  0  0  0  0  0  0  0  0  0  0
   42.8020  -11.8540    1.7300 N   0  0  0  0  0  0  0  0  0  0  0  0
   41.6640  -12.3100    0.9140 C   0  0  0  0  0  0  0  0  0  0  0  0
   41.2950  -11.5730   -0.3910 C   0  0  0  0  0  0  0  0  0  0  0  0
   40.0260  -12.2220   -0.9830 C   0  0  0  0  0  0  0  0  0  0  0  0
   39.3760  -11.5920   -2.2440 C   0  0  0  0  0  0  0  0  0  0  0  0
   39.1340  -12.5700   -3.3270 N   0  0  0  0  0  0  0  0  0  0  0  0
   37.8110  -13.0610   -3.7400 C   0  0  0  0  0  0  0  0  0  0  0  0
   37.7530  -14.0200   -4.9500 C   0  0  0  0  0  0  0  0  0  0  0  0
   38.5920  -15.3270   -4.8960 C   0  0  0  0  0  0  0  0  0  0  0  0
   37.8320  -16.5840   -4.7250 N   0  0  0  0  0  0  0  0  0  0  0  0
   47.6489  -12.3960    4.4158 H   0  0  0  0  0  0  0  0  0  0  0  0
   47.9319  -13.1881    2.9592 H   0  0  0  0  0  0  0  0  0  0  0  0
   45.8471  -13.7468    2.6215 H   0  0  0  0  0  0  0  0  0  0  0  0
   45.8239  -13.4514    4.4775 H   0  0  0  0  0  0  0  0  0  0  0  0
   44.4652  -11.7057    4.3518 H   0  0  0  0  0  0  0  0  0  0  0  0
   45.0386  -11.2314    2.6919 H   0  0  0  0  0  0  0  0  0  0  0  0
   43.8153  -13.6378    2.2061 H   0  0  0  0  0  0  0  0  0  0  0  0
   42.7848  -12.9110    3.5303 H   0  0  0  0  0  0  0  0  0  0  0  0
   42.4605  -11.0393    2.2597 H   0  0  0  0  0  0  0  0  0  0  0  0
   41.8711  -13.3547    0.6390 H   0  0  0  0  0  0  0  0  0  0  0  0
   40.7979  -12.1149    1.5635 H   0  0  0  0  0  0  0  0  0  0  0  0
   41.1019  -10.5118   -0.1751 H   0  0  0  0  0  0  0  0  0  0  0  0
   42.1241  -11.6459   -1.1103 H   0  0  0  0  0  0  0  0  0  0  0  0
   40.2843  -13.2603   -1.2383 H   0  0  0  0  0  0  0  0  0  0  0  0
   39.2680  -12.0824   -0.1982 H   0  0  0  0  0  0  0  0  0  0  0  0
   38.4131  -11.1458   -1.9547 H   0  0  0  0  0  0  0  0  0  0  0  0
   40.0797  -10.8416   -2.6334 H   0  0  0  0  0  0  0  0  0  0  0  0
   39.5477  -12.1515   -4.1723 H   0  0  0  0  0  0  0  0  0  0  0  0
   37.3718  -13.5881   -2.8802 H   0  0  0  0  0  0  0  0  0  0  0  0
   37.2678  -12.1624   -4.0678 H   0  0  0  0  0  0  0  0  0  0  0  0
   36.7012  -14.3136   -5.0826 H   0  0  0  0  0  0  0  0  0  0  0  0
   38.2004  -13.4445   -5.7738 H   0  0  0  0  0  0  0  0  0  0  0  0
   39.1574  -15.4020   -5.8366 H   0  0  0  0  0  0  0  0  0  0  0  0
   39.2190  -15.2374   -3.9967 H   0  0  0  0  0  0  0  0  0  0  0  0
   37.7137  -16.7797   -3.7207 H   0  0  0  0  0  0  0  0  0  0  0  0
   36.9068  -16.4888   -5.1676 H   0  0  0  0  0  0  0  0  0  0  0  0
  1  2  1  0
  2  3  1  0
  3  4  1  0
  4  5  1  0
  5  6  1  0
  6  7  1  0
  7  8  1  0
  8  9  1  0
  9 10  1  0
 10 11  1  0
 11 12  1  0
 12 13  1  0
 13 14  1  0
  1 15  1  0
  1 16  1  0
  2 17  1  0
  2 18  1  0
  3 19  1  0
  3 20  1  0
  4 21  1  0
  4 22  1  0
  5 23  1  0
  6 24  1  0
  6 25  1  0
  7 26  1  0
  7 27  1  0
  8 28  1  0
  8 29  1  0
  9 30  1  0
  9 31  1  0
 10 32  1  0
 11 33  1  0
 11 34  1  0
 12 35  1  0
 12 36  1  0
 13 37  1  0
 13 38  1  0
 14 39  1  0
 14 40  1  0
M  END
$$$$
