PDB_DB00218_97
     RDKit          3D

 53 57  0  0  0  0  0  0  0  0999 V2000
   21.6710  -53.1640   53.4730 F   0  0  0  0  0  0  0  0  0  0  0  0
   17.3010  -50.8180   53.6300 O   0  0  0  0  0  0  0  0  0  0  0  0
   20.1410  -54.1150   58.1370 O   0  0  0  0  0  0  0  0  0  0  0  0
   16.9360  -53.1590   60.5730 O   0  0  0  0  0  0  0  0  0  0  0  0
   19.0500  -53.7790   60.5130 O   0  0  0  0  0  0  0  0  0  0  0  0
   20.0040  -51.5200   52.2760 N   0  0  0  0  0  0  0  0  0  0  0  0
   22.3570  -50.1360   51.2510 N   0  0  0  0  0  0  0  0  0  0  0  0
   17.0500  -51.8350   56.5690 N   0  0  0  0  0  0  0  0  0  0  0  0
   20.0890  -50.4150   50.2160 C   0  0  2  0  0  0  0  0  0  0  0  0
   20.9680  -49.6740   51.2320 C   0  0  1  0  0  0  0  0  0  0  0  0
   19.2690  -51.4300   51.0240 C   0  0  0  0  0  0  0  0  0  0  0  0
   20.3560  -50.1170   52.5330 C   0  0  0  0  0  0  0  0  0  0  0  0
   20.8660  -51.1150   49.0840 C   0  0  0  0  0  0  0  0  0  0  0  0
   15.9380  -50.9330   56.2040 C   0  0  0  0  0  0  0  0  0  0  0  0
   22.2500  -50.5230   48.7760 C   0  0  0  0  0  0  0  0  0  0  0  0
   14.6960  -51.0670   57.0810 C   0  0  0  0  0  0  0  0  0  0  0  0
   14.6980  -51.6420   55.6700 C   0  0  0  0  0  0  0  0  0  0  0  0
   23.1220  -50.3220   50.0240 C   0  0  0  0  0  0  0  0  0  0  0  0
   19.4650  -52.0820   53.4530 C   0  0  0  0  0  0  0  0  0  0  0  0
   18.1650  -52.0690   55.6870 C   0  0  0  0  0  0  0  0  0  0  0  0
   18.2580  -51.6180   54.2340 C   0  0  0  0  0  0  0  0  0  0  0  0
   19.2990  -52.9030   56.2290 C   0  0  0  0  0  0  0  0  0  0  0  0
   20.5330  -52.8630   54.1370 C   0  0  0  0  0  0  0  0  0  0  0  0
   17.1010  -52.2030   57.8720 C   0  0  0  0  0  0  0  0  0  0  0  0
   20.3900  -53.2780   55.4460 C   0  0  0  0  0  0  0  0  0  0  0  0
   18.0890  -52.9840   58.4700 C   0  0  0  0  0  0  0  0  0  0  0  0
   19.2370  -53.4020   57.6380 C   0  0  0  0  0  0  0  0  0  0  0  0
   18.0130  -53.3460   59.9390 C   0  0  0  0  0  0  0  0  0  0  0  0
   16.3800  -51.4130   52.6980 C   0  0  0  0  0  0  0  0  0  0  0  0
   16.8797  -53.3935   61.5332 H   0  0  0  0  0  0  0  0  0  0  0  0
   22.8809  -49.4539   51.8177 H   0  0  0  0  0  0  0  0  0  0  0  0
   19.4600  -49.6819   49.6897 H   0  0  0  0  0  0  0  0  0  0  0  0
   20.9985  -48.5952   51.0193 H   0  0  0  0  0  0  0  0  0  0  0  0
   19.2336  -52.4046   50.5152 H   0  0  0  0  0  0  0  0  0  0  0  0
   18.2188  -51.1313   51.1578 H   0  0  0  0  0  0  0  0  0  0  0  0
   19.4614  -49.5228   52.7710 H   0  0  0  0  0  0  0  0  0  0  0  0
   21.0306  -49.9913   53.3927 H   0  0  0  0  0  0  0  0  0  0  0  0
   21.0023  -52.1694   49.3665 H   0  0  0  0  0  0  0  0  0  0  0  0
   20.2660  -50.9778   48.1723 H   0  0  0  0  0  0  0  0  0  0  0  0
   16.5668  -50.0965   55.8650 H   0  0  0  0  0  0  0  0  0  0  0  0
   22.7753  -51.2041   48.0903 H   0  0  0  0  0  0  0  0  0  0  0  0
   22.0856  -49.5297   48.3328 H   0  0  0  0  0  0  0  0  0  0  0  0
   14.7064  -51.7416   57.9498 H   0  0  0  0  0  0  0  0  0  0  0  0
   14.0547  -50.3648   57.6339 H   0  0  0  0  0  0  0  0  0  0  0  0
   14.0910  -51.1702   54.8832 H   0  0  0  0  0  0  0  0  0  0  0  0
   14.4957  -52.6312   55.2335 H   0  0  0  0  0  0  0  0  0  0  0  0
   23.7505  -49.4327   49.8687 H   0  0  0  0  0  0  0  0  0  0  0  0
   23.7157  -51.2392   50.1518 H   0  0  0  0  0  0  0  0  0  0  0  0
   16.2846  -51.8519   58.5202 H   0  0  0  0  0  0  0  0  0  0  0  0
   21.1624  -53.9260   55.8858 H   0  0  0  0  0  0  0  0  0  0  0  0
   15.5812  -51.9291   53.2507 H   0  0  0  0  0  0  0  0  0  0  0  0
   15.9400  -50.6280   52.0654 H   0  0  0  0  0  0  0  0  0  0  0  0
   16.9148  -52.1368   52.0654 H   0  0  0  0  0  0  0  0  0  0  0  0
  7 10  1  0
  9 10  1  0
  6 11  1  0
  9 11  1  0
  6 12  1  0
 10 12  1  0
  9 13  1  0
  8 14  1  0
 13 15  1  0
 14 16  1  0
 14 17  1  0
 16 17  1  0
  7 18  1  0
 15 18  1  0
  6 19  1  0
  8 20  1  0
  2 21  1  0
 19 21  2  0
 20 21  1  0
 20 22  2  0
  1 23  1  0
 19 23  1  0
  8 24  1  0
 22 25  1  0
 23 25  2  0
 24 26  2  0
 22 27  1  0
 26 27  1  0
 27  3  2  0
  4 28  1  0
 26 28  1  0
 28  5  2  0
  2 29  1  0
  4 30  1  0
  7 31  1  0
  9 32  1  6
 10 33  1  6
 11 34  1  0
 11 35  1  0
 12 36  1  0
 12 37  1  0
 13 38  1  0
 13 39  1  0
 14 40  1  0
 15 41  1  0
 15 42  1  0
 16 43  1  0
 16 44  1  0
 17 45  1  0
 17 46  1  0
 18 47  1  0
 18 48  1  0
 24 49  1  0
 25 50  1  0
 29 51  1  0
 29 52  1  0
 29 53  1  0
M  END
$$$$
