PDB_DB02546_94
     RDKit          3D

 39 39  0  0  0  0  0  0  0  0999 V2000
    4.6730  -28.2080   16.9090 O   0  0  0  0  0  0  0  0  0  0  0  0
    3.5880  -29.3710   19.0730 O   0  0  0  0  0  0  0  0  0  0  0  0
    3.8140  -29.3020   16.8510 N   0  0  0  0  0  0  0  0  0  0  0  0
    3.3220  -29.8180   17.9720 C   0  0  0  0  0  0  0  0  0  0  0  0
    2.3940  -31.0010   17.8290 C   0  0  0  0  0  0  0  0  0  0  0  0
    3.0420  -32.0840   16.9770 C   0  0  0  0  0  0  0  0  0  0  0  0
    2.1410  -33.3110   16.9200 C   0  0  0  0  0  0  0  0  0  0  0  0
    2.4190  -34.2530   18.0810 C   0  0  0  0  0  0  0  0  0  0  0  0
    3.5680  -35.1870   17.7310 C   0  0  0  0  0  0  0  0  0  0  0  0
    3.1260  -36.6430   17.7980 C   0  0  0  0  0  0  0  0  0  0  0  0
    2.8800  -37.0230   19.2400 C   0  0  0  0  0  0  0  0  0  0  0  0
    3.6750  -36.6520   20.0880 O   0  0  0  0  0  0  0  0  0  0  0  0
    1.7840  -37.7600   19.4560 N   0  0  0  0  0  0  0  0  0  0  0  0
    1.3200  -38.2560   20.6900 C   0  0  0  0  0  0  0  0  0  0  0  0
    2.0350  -38.1250   21.8790 C   0  0  0  0  0  0  0  0  0  0  0  0
    1.5310  -38.6390   23.0690 C   0  0  0  0  0  0  0  0  0  0  0  0
    0.3060  -39.2940   23.0810 C   0  0  0  0  0  0  0  0  0  0  0  0
   -0.4130  -39.4310   21.9000 C   0  0  0  0  0  0  0  0  0  0  0  0
    0.0940  -38.9160   20.7120 C   0  0  0  0  0  0  0  0  0  0  0  0
    4.8526  -27.9793   17.8553 H   0  0  0  0  0  0  0  0  0  0  0  0
    3.5603  -29.7108   15.9403 H   0  0  0  0  0  0  0  0  0  0  0  0
    2.1708  -31.4091   18.8258 H   0  0  0  0  0  0  0  0  0  0  0  0
    1.4662  -30.6696   17.3398 H   0  0  0  0  0  0  0  0  0  0  0  0
    3.1997  -31.7003   15.9582 H   0  0  0  0  0  0  0  0  0  0  0  0
    4.0072  -32.3653   17.4234 H   0  0  0  0  0  0  0  0  0  0  0  0
    1.0907  -32.9871   16.9646 H   0  0  0  0  0  0  0  0  0  0  0  0
    2.3425  -33.8473   15.9809 H   0  0  0  0  0  0  0  0  0  0  0  0
    2.6862  -33.6647   18.9712 H   0  0  0  0  0  0  0  0  0  0  0  0
    1.5180  -34.8502   18.2846 H   0  0  0  0  0  0  0  0  0  0  0  0
    3.9162  -34.9631   16.7119 H   0  0  0  0  0  0  0  0  0  0  0  0
    4.3795  -35.0327   18.4575 H   0  0  0  0  0  0  0  0  0  0  0  0
    2.1990  -36.7728   17.2202 H   0  0  0  0  0  0  0  0  0  0  0  0
    3.9113  -37.2869   17.3754 H   0  0  0  0  0  0  0  0  0  0  0  0
    1.2166  -37.9901   18.6277 H   0  0  0  0  0  0  0  0  0  0  0  0
    3.0071  -37.6102   21.8763 H   0  0  0  0  0  0  0  0  0  0  0  0
    2.1031  -38.5267   24.0018 H   0  0  0  0  0  0  0  0  0  0  0  0
   -0.0930  -39.7023   24.0213 H   0  0  0  0  0  0  0  0  0  0  0  0
   -1.3843  -39.9474   21.9048 H   0  0  0  0  0  0  0  0  0  0  0  0
   -0.4792  -39.0311   19.7802 H   0  0  0  0  0  0  0  0  0  0  0  0
  1  3  1  0
  3  4  1  0
  4  2  2  0
  4  5  1  0
  5  6  1  0
  6  7  1  0
  7  8  1  0
  8  9  1  0
  9 10  1  0
 10 11  1  0
 11 12  2  0
 11 13  1  0
 13 14  1  0
 14 15  2  0
 15 16  1  0
 16 17  2  0
 17 18  1  0
 14 19  1  0
 18 19  2  0
  1 20  1  0
  3 21  1  0
  5 22  1  0
  5 23  1  0
  6 24  1  0
  6 25  1  0
  7 26  1  0
  7 27  1  0
  8 28  1  0
  8 29  1  0
  9 30  1  0
  9 31  1  0
 10 32  1  0
 10 33  1  0
 13 34  1  0
 15 35  1  0
 16 36  1  0
 17 37  1  0
 18 38  1  0
 19 39  1  0
M  END
$$$$
