PDB_DB00755_90
     RDKit          3D

 50 50  0  0  0  0  0  0  0  0999 V2000
   35.2250    8.5040   52.6380 C   0  0  0  0  0  0  0  0  0  0  0  0
   34.6050    7.5470   51.5580 C   0  0  0  0  0  0  0  0  0  0  0  0
   34.2330    6.1510   51.9770 C   0  0  0  0  0  0  0  0  0  0  0  0
   35.3050    5.4760   52.7770 C   0  0  0  0  0  0  0  0  0  0  0  0
   35.7810    6.3160   53.9570 C   0  0  0  0  0  0  0  0  0  0  0  0
   35.7500    7.7110   53.9240 C   0  0  0  0  0  0  0  0  0  0  0  0
   36.1970    8.6050   55.0380 C   0  0  0  0  0  0  0  0  0  0  0  0
   35.8070    8.5680   56.3220 C   0  0  0  0  0  0  0  0  0  0  0  0
   36.2190    9.3970   57.4460 C   0  0  0  0  0  0  0  0  0  0  0  0
   35.6750    9.1340   58.6710 C   0  0  0  0  0  0  0  0  0  0  0  0
   34.6800    8.1050   58.9690 C   0  0  0  0  0  0  0  0  0  0  0  0
   34.3020    7.9350   60.2490 C   0  0  0  0  0  0  0  0  0  0  0  0
   33.3170    6.9550   60.7260 C   0  0  0  0  0  0  0  0  0  0  0  0
   33.1120    6.8860   62.0800 C   0  0  0  0  0  0  0  0  0  0  0  0
   32.2430    5.9830   62.8630 C   0  0  0  0  0  0  0  0  0  0  0  0
   34.1280    9.5200   52.9990 C   0  0  0  0  0  0  0  0  0  0  0  0
   36.4290    9.2510   51.9950 C   0  0  0  0  0  0  0  0  0  0  0  0
   36.2540    5.3790   55.0790 C   0  0  0  0  0  0  0  0  0  0  0  0
   37.2570   10.5250   57.2580 C   0  0  0  0  0  0  0  0  0  0  0  0
   32.5950    6.0280   59.7150 C   0  0  0  0  0  0  0  0  0  0  0  0
   32.6250    5.6260   63.9970 O   0  0  0  0  0  0  0  0  0  0  0  0
   31.1790    5.5590   62.3760 O   0  0  0  0  0  0  0  0  0  0  0  0
   33.6911    8.0291   51.1808 H   0  0  0  0  0  0  0  0  0  0  0  0
   35.4110    7.4060   50.8229 H   0  0  0  0  0  0  0  0  0  0  0  0
   33.3186    6.1996   52.5864 H   0  0  0  0  0  0  0  0  0  0  0  0
   34.0842    5.5605   51.0609 H   0  0  0  0  0  0  0  0  0  0  0  0
   34.9100    4.5237   53.1605 H   0  0  0  0  0  0  0  0  0  0  0  0
   36.1672    5.3225   52.1113 H   0  0  0  0  0  0  0  0  0  0  0  0
   36.9296    9.3820   54.7742 H   0  0  0  0  0  0  0  0  0  0  0  0
   35.0632    7.7938   56.5614 H   0  0  0  0  0  0  0  0  0  0  0  0
   36.0176    9.7545   59.5122 H   0  0  0  0  0  0  0  0  0  0  0  0
   34.2514    7.4857   58.1673 H   0  0  0  0  0  0  0  0  0  0  0  0
   34.7704    8.5852   61.0025 H   0  0  0  0  0  0  0  0  0  0  0  0
   33.6820    7.6149   62.6748 H   0  0  0  0  0  0  0  0  0  0  0  0
   34.0451    9.5968   54.0932 H   0  0  0  0  0  0  0  0  0  0  0  0
   34.3875   10.5038   52.5810 H   0  0  0  0  0  0  0  0  0  0  0  0
   33.1669    9.1859   52.5810 H   0  0  0  0  0  0  0  0  0  0  0  0
   37.0769    9.6530   52.7879 H   0  0  0  0  0  0  0  0  0  0  0  0
   37.0041    8.5509   51.3713 H   0  0  0  0  0  0  0  0  0  0  0  0
   36.0571   10.0772   51.3713 H   0  0  0  0  0  0  0  0  0  0  0  0
   36.0256    5.8315   56.0553 H   0  0  0  0  0  0  0  0  0  0  0  0
   35.7358    4.4126   54.9925 H   0  0  0  0  0  0  0  0  0  0  0  0
   37.3393    5.2221   54.9925 H   0  0  0  0  0  0  0  0  0  0  0  0
   37.5889   10.8857   58.2427 H   0  0  0  0  0  0  0  0  0  0  0  0
   38.1216   10.1382   56.6987 H   0  0  0  0  0  0  0  0  0  0  0  0
   36.7998   11.3545   56.6987 H   0  0  0  0  0  0  0  0  0  0  0  0
   32.0086    5.2751   60.2620 H   0  0  0  0  0  0  0  0  0  0  0  0
   31.9234    6.6274   59.0828 H   0  0  0  0  0  0  0  0  0  0  0  0
   33.3406    5.5237   59.0828 H   0  0  0  0  0  0  0  0  0  0  0  0
   30.5995    4.9542   62.9037 H   0  0  0  0  0  0  0  0  0  0  0  0
  1  2  1  0
  2  3  1  0
  3  4  1  0
  4  5  1  0
  1  6  1  0
  5  6  2  0
  6  7  1  0
  7  8  2  0
  8  9  1  0
  9 10  2  0
 10 11  1  0
 11 12  2  0
 12 13  1  0
 13 14  2  0
 14 15  1  0
  1 16  1  0
  1 17  1  0
  5 18  1  0
  9 19  1  0
 13 20  1  0
 15 21  2  0
 15 22  1  0
  2 23  1  0
  2 24  1  0
  3 25  1  0
  3 26  1  0
  4 27  1  0
  4 28  1  0
  7 29  1  0
  8 30  1  0
 10 31  1  0
 11 32  1  0
 12 33  1  0
 14 34  1  0
 16 35  1  0
 16 36  1  0
 16 37  1  0
 17 38  1  0
 17 39  1  0
 17 40  1  0
 18 41  1  0
 18 42  1  0
 18 43  1  0
 19 44  1  0
 19 45  1  0
 19 46  1  0
 20 47  1  0
 20 48  1  0
 20 49  1  0
 22 50  1  0
M  END
$$$$
