PDB_DB00452_99
     RDKit          3D

 88 91  0  0  0  0  0  0  0  0999 V2000
  104.2760    0.1150  -32.5240 C   0  0  2  0  0  0  0  0  0  0  0  0
  104.6290    1.5180  -32.4890 O   0  0  0  0  0  0  0  0  0  0  0  0
  103.9170   -0.4030  -31.1040 C   0  0  2  0  0  0  0  0  0  0  0  0
  102.8580    0.4420  -30.4860 N   0  0  0  0  0  0  0  0  0  0  0  0
  105.2150   -0.4610  -30.1880 C   0  0  1  0  0  0  0  0  0  0  0  0
  104.8940   -0.9610  -28.8690 O   0  0  0  0  0  0  0  0  0  0  0  0
  106.2900   -1.3770  -30.8590 C   0  0  2  0  0  0  0  0  0  0  0  0
  107.4530   -1.4490  -30.0370 O   0  0  0  0  0  0  0  0  0  0  0  0
  106.6460   -0.8180  -32.2840 C   0  0  2  0  0  0  0  0  0  0  0  0
  105.3790   -0.7470  -33.0810 O   0  0  0  0  0  0  0  0  0  0  0  0
  107.6960   -1.7350  -32.9950 C   0  0  0  0  0  0  0  0  0  0  0  0
  105.1420    4.8120  -35.3060 C   0  0  1  0  0  0  0  0  0  0  0  0
  105.4720    5.5590  -36.5520 N   0  0  0  0  0  0  0  0  0  0  0  0
  103.9640    3.7790  -35.5060 C   0  0  1  0  0  0  0  0  0  0  0  0
  103.6540    3.0090  -34.2060 C   0  0  1  0  0  0  0  0  0  0  0  0
  102.5780    2.0700  -34.4570 O   0  0  0  0  0  0  0  0  0  0  0  0
  104.9160    2.2340  -33.7430 C   0  0  1  0  0  0  0  0  0  0  0  0
  106.1110    3.2310  -33.5450 C   0  0  1  0  0  0  0  0  0  0  0  0
  107.3280    2.5080  -33.1320 N   0  0  0  0  0  0  0  0  0  0  0  0
  106.4220    4.0290  -34.8590 C   0  0  0  0  0  0  0  0  0  0  0  0
  101.3160    2.2750  -33.7810 C   0  0  1  0  0  0  0  0  0  0  0  0
  100.1440    1.8380  -34.6290 C   0  0  1  0  0  0  0  0  0  0  0  0
   99.1200    1.2590  -33.5700 C   0  0  1  0  0  0  0  0  0  0  0  0
   99.9510    0.8680  -32.3560 C   0  0  2  0  0  0  0  0  0  0  0  0
  101.2720    1.4980  -32.5470 O   0  0  0  0  0  0  0  0  0  0  0  0
  100.1270   -0.6300  -32.1960 C   0  0  0  0  0  0  0  0  0  0  0  0
   94.4110    2.3070  -32.2430 C   0  0  1  0  0  0  0  0  0  0  0  0
   95.3370    3.5600  -32.4750 C   0  0  1  0  0  0  0  0  0  0  0  0
   96.0540    3.4780  -33.8390 C   0  0  2  0  0  0  0  0  0  0  0  0
   96.8990    2.1850  -33.9200 C   0  0  1  0  0  0  0  0  0  0  0  0
   98.0700    2.2050  -33.1240 O   0  0  0  0  0  0  0  0  0  0  0  0
   95.2190    0.9760  -32.3100 C   0  0  1  0  0  0  0  0  0  0  0  0
   96.0030    0.9840  -33.5930 O   0  0  0  0  0  0  0  0  0  0  0  0
   96.1570    0.7780  -31.0480 C   0  0  0  0  0  0  0  0  0  0  0  0
  108.0530   -1.2330  -34.3260 N   0  0  0  0  0  0  0  0  0  0  0  0
   99.6950    2.9100  -35.4670 O   0  0  0  0  0  0  0  0  0  0  0  0
   94.5720    4.7280  -32.4200 O   0  0  0  0  0  0  0  0  0  0  0  0
   93.6820    2.3210  -30.9890 O   0  0  0  0  0  0  0  0  0  0  0  0
   99.9170   -0.9060  -30.8220 O   0  0  0  0  0  0  0  0  0  0  0  0
  102.7820    4.4570  -35.8920 O   0  0  0  0  0  0  0  0  0  0  0  0
   96.9200   -0.5080  -31.1350 N   0  0  0  0  0  0  0  0  0  0  0  0
   96.9150    4.6900  -34.1050 N   0  0  0  0  0  0  0  0  0  0  0  0
  103.4036    0.0401  -33.1898 H   0  0  0  0  0  0  0  0  0  0  0  0
  103.5194   -1.4246  -31.1952 H   0  0  0  0  0  0  0  0  0  0  0  0
  102.9289    0.3855  -29.4600 H   0  0  0  0  0  0  0  0  0  0  0  0
  102.9808    1.4199  -30.7853 H   0  0  0  0  0  0  0  0  0  0  0  0
  105.6146    0.5583  -30.0814 H   0  0  0  0  0  0  0  0  0  0  0  0
  105.2805   -0.3589  -28.1848 H   0  0  0  0  0  0  0  0  0  0  0  0
  105.8854   -2.3937  -30.9718 H   0  0  0  0  0  0  0  0  0  0  0  0
  107.1851   -1.4324  -29.0841 H   0  0  0  0  0  0  0  0  0  0  0  0
  107.0946    0.1824  -32.1951 H   0  0  0  0  0  0  0  0  0  0  0  0
  108.6048   -1.7795  -32.3769 H   0  0  0  0  0  0  0  0  0  0  0  0
  107.2482   -2.7323  -33.1172 H   0  0  0  0  0  0  0  0  0  0  0  0
  104.8147    5.5406  -34.5497 H   0  0  0  0  0  0  0  0  0  0  0  0
  105.8763    6.4741  -36.3068 H   0  0  0  0  0  0  0  0  0  0  0  0
  106.1532    5.0199  -37.1053 H   0  0  0  0  0  0  0  0  0  0  0  0
  104.2875    3.0718  -36.2840 H   0  0  0  0  0  0  0  0  0  0  0  0
  103.3558    3.7185  -33.4201 H   0  0  0  0  0  0  0  0  0  0  0  0
  105.1952    1.4994  -34.5126 H   0  0  0  0  0  0  0  0  0  0  0  0
  105.8102    3.9398  -32.7594 H   0  0  0  0  0  0  0  0  0  0  0  0
  107.3775    2.4786  -32.1036 H   0  0  0  0  0  0  0  0  0  0  0  0
  107.2987    1.5472  -33.5020 H   0  0  0  0  0  0  0  0  0  0  0  0
  107.2405    4.7397  -34.6720 H   0  0  0  0  0  0  0  0  0  0  0  0
  106.7206    3.3285  -35.6528 H   0  0  0  0  0  0  0  0  0  0  0  0
  101.2411    3.3532  -33.5765 H   0  0  0  0  0  0  0  0  0  0  0  0
  100.3580    1.0600  -35.3766 H   0  0  0  0  0  0  0  0  0  0  0  0
   98.5811    0.4275  -34.0478 H   0  0  0  0  0  0  0  0  0  0  0  0
   99.4351    1.2051  -31.4449 H   0  0  0  0  0  0  0  0  0  0  0  0
   99.3906   -1.1687  -32.8105 H   0  0  0  0  0  0  0  0  0  0  0  0
  101.1260   -0.9544  -32.5229 H   0  0  0  0  0  0  0  0  0  0  0  0
   93.6783    2.3664  -33.0613 H   0  0  0  0  0  0  0  0  0  0  0  0
   96.0995    3.5744  -31.6823 H   0  0  0  0  0  0  0  0  0  0  0  0
   95.2785    3.4546  -34.6188 H   0  0  0  0  0  0  0  0  0  0  0  0
   97.2767    2.1017  -34.9498 H   0  0  0  0  0  0  0  0  0  0  0  0
   94.5267    0.1213  -32.2937 H   0  0  0  0  0  0  0  0  0  0  0  0
   96.8692    1.6147  -30.9958 H   0  0  0  0  0  0  0  0  0  0  0  0
   95.5263    0.7479  -30.1473 H   0  0  0  0  0  0  0  0  0  0  0  0
  108.6473   -0.3973  -34.2297 H   0  0  0  0  0  0  0  0  0  0  0  0
  108.5666   -1.9620  -34.8415 H   0  0  0  0  0  0  0  0  0  0  0  0
   99.3807    3.6604  -34.9029 H   0  0  0  0  0  0  0  0  0  0  0  0
   94.4115    4.9731  -31.4744 H   0  0  0  0  0  0  0  0  0  0  0  0
   94.3229    2.3087  -30.2346 H   0  0  0  0  0  0  0  0  0  0  0  0
  100.4161   -0.2500  -30.2736 H   0  0  0  0  0  0  0  0  0  0  0  0
  102.2859    4.7416  -35.0839 H   0  0  0  0  0  0  0  0  0  0  0  0
   97.1237   -0.8513  -30.1855 H   0  0  0  0  0  0  0  0  0  0  0  0
   96.3572   -1.2076  -31.6397 H   0  0  0  0  0  0  0  0  0  0  0  0
   97.2098    5.1049  -33.2096 H   0  0  0  0  0  0  0  0  0  0  0  0
   97.7468    4.4088  -34.6434 H   0  0  0  0  0  0  0  0  0  0  0  0
  2  1  1  0
  3  1  1  0
  4  3  1  0
  5  3  1  0
  6  5  1  0
  7  5  1  0
  8  7  1  0
  9  7  1  0
 10  9  1  0
 10  1  1  0
 11  9  1  0
 13 12  1  0
 14 12  1  0
 15 14  1  0
 16 15  1  0
 17 15  1  0
 17  2  1  0
 18 17  1  0
 19 18  1  0
 20 18  1  0
 20 12  1  0
 21 16  1  0
 22 21  1  0
 23 22  1  0
 24 23  1  0
 25 21  1  0
 25 24  1  0
 26 24  1  0
 28 27  1  0
 29 28  1  0
 30 29  1  0
 31 30  1  0
 31 23  1  0
 32 27  1  0
 33 30  1  0
 33 32  1  0
 34 32  1  0
 35 11  1  0
 36 22  1  0
 37 28  1  0
 38 27  1  0
 39 26  1  0
 40 14  1  0
 41 34  1  0
 42 29  1  0
  1 43  1  6
  3 44  1  6
  4 45  1  0
  4 46  1  0
  5 47  1  1
  6 48  1  0
  7 49  1  6
  8 50  1  0
  9 51  1  1
 11 52  1  0
 11 53  1  0
 12 54  1  1
 13 55  1  0
 13 56  1  0
 14 57  1  6
 15 58  1  1
 17 59  1  6
 18 60  1  1
 19 61  1  0
 19 62  1  0
 20 63  1  0
 20 64  1  0
 21 65  1  1
 22 66  1  6
 23 67  1  6
 24 68  1  1
 26 69  1  0
 26 70  1  0
 27 71  1  6
 28 72  1  1
 29 73  1  6
 30 74  1  6
 32 75  1  6
 34 76  1  0
 34 77  1  0
 35 78  1  0
 35 79  1  0
 36 80  1  0
 37 81  1  0
 38 82  1  0
 39 83  1  0
 40 84  1  0
 41 85  1  0
 41 86  1  0
 42 87  1  0
 42 88  1  0
M  END
$$$$
