PDB_DB00127_98
     RDKit          3D

 40 39  0  0  0  0  0  0  0  0999 V2000
  -97.1980   27.7790   26.5450 N   0  0  0  0  0  0  0  0  0  0  0  0
  -96.5130   26.6060   26.2300 C   0  0  0  0  0  0  0  0  0  0  0  0
  -97.4030   25.7160   25.4280 C   0  0  0  0  0  0  0  0  0  0  0  0
  -96.4170   24.7960   24.5640 C   0  0  0  0  0  0  0  0  0  0  0  0
  -96.9870   23.5280   24.4230 N   0  0  0  0  0  0  0  0  0  0  0  0
  -96.1440   22.5390   23.5950 C   0  0  0  0  0  0  0  0  0  0  0  0
  -96.1780   21.1910   24.1240 C   0  0  0  0  0  0  0  0  0  0  0  0
  -97.4590   20.9770   25.0140 C   0  0  0  0  0  0  0  0  0  0  0  0
  -97.7230   19.5460   25.2670 C   0  0  0  0  0  0  0  0  0  0  0  0
  -97.3490   19.1740   26.6400 N   0  0  0  0  0  0  0  0  0  0  0  0
  -96.0680   18.8530   27.0060 C   0  0  0  0  0  0  0  0  0  0  0  0
  -96.0530   18.2250   28.3830 C   0  0  0  0  0  0  0  0  0  0  0  0
  -94.5390   18.0710   28.7720 C   0  0  0  0  0  0  0  0  0  0  0  0
  -94.2600   19.0660   29.7720 N   0  0  0  0  0  0  0  0  0  0  0  0
  -97.2560   27.8784   27.5686 H   0  0  0  0  0  0  0  0  0  0  0  0
  -96.6957   28.5866   26.1496 H   0  0  0  0  0  0  0  0  0  0  0  0
  -95.6143   26.8510   25.6449 H   0  0  0  0  0  0  0  0  0  0  0  0
  -96.2158   26.0925   27.1563 H   0  0  0  0  0  0  0  0  0  0  0  0
  -98.0259   25.0967   26.0902 H   0  0  0  0  0  0  0  0  0  0  0  0
  -98.0898   26.2915   24.7900 H   0  0  0  0  0  0  0  0  0  0  0  0
  -96.2675   25.2459   23.5714 H   0  0  0  0  0  0  0  0  0  0  0  0
  -95.4449   24.7128   25.0720 H   0  0  0  0  0  0  0  0  0  0  0  0
  -97.1208   23.1287   25.3630 H   0  0  0  0  0  0  0  0  0  0  0  0
  -96.5322   22.5224   22.5659 H   0  0  0  0  0  0  0  0  0  0  0  0
  -95.0997   22.8827   23.6323 H   0  0  0  0  0  0  0  0  0  0  0  0
  -96.1944   20.4752   23.2889 H   0  0  0  0  0  0  0  0  0  0  0  0
  -95.2841   21.0311   24.7448 H   0  0  0  0  0  0  0  0  0  0  0  0
  -97.3115   21.4869   25.9775 H   0  0  0  0  0  0  0  0  0  0  0  0
  -98.3223   21.3917   24.4730 H   0  0  0  0  0  0  0  0  0  0  0  0
  -98.7948   19.3468   25.1200 H   0  0  0  0  0  0  0  0  0  0  0  0
  -97.1197   18.9499   24.5665 H   0  0  0  0  0  0  0  0  0  0  0  0
  -97.6221   19.9703   27.2336 H   0  0  0  0  0  0  0  0  0  0  0  0
  -95.6511   18.1409   26.2786 H   0  0  0  0  0  0  0  0  0  0  0  0
  -95.4627   19.7712   27.0266 H   0  0  0  0  0  0  0  0  0  0  0  0
  -96.5690   18.8748   29.1051 H   0  0  0  0  0  0  0  0  0  0  0  0
  -96.5713   17.2548   28.3891 H   0  0  0  0  0  0  0  0  0  0  0  0
  -94.3532   17.0654   29.1772 H   0  0  0  0  0  0  0  0  0  0  0  0
  -93.8916   18.2049   27.8928 H   0  0  0  0  0  0  0  0  0  0  0  0
  -94.3757   18.6533   30.7086 H   0  0  0  0  0  0  0  0  0  0  0  0
  -93.2925   19.4016   29.6618 H   0  0  0  0  0  0  0  0  0  0  0  0
  1  2  1  0
  2  3  1  0
  3  4  1  0
  4  5  1  0
  5  6  1  0
  6  7  1  0
  7  8  1  0
  8  9  1  0
  9 10  1  0
 10 11  1  0
 11 12  1  0
 12 13  1  0
 13 14  1  0
  1 15  1  0
  1 16  1  0
  2 17  1  0
  2 18  1  0
  3 19  1  0
  3 20  1  0
  4 21  1  0
  4 22  1  0
  5 23  1  0
  6 24  1  0
  6 25  1  0
  7 26  1  0
  7 27  1  0
  8 28  1  0
  8 29  1  0
  9 30  1  0
  9 31  1  0
 10 32  1  0
 11 33  1  0
 11 34  1  0
 12 35  1  0
 12 36  1  0
 13 37  1  0
 13 38  1  0
 14 39  1  0
 14 40  1  0
M  END
$$$$
