PDB_DB01024_99
     RDKit          3D

 43 44  0  0  0  0  0  0  0  0999 V2000
   65.4650   77.9460   82.6750 C   0  0  0  0  0  0  0  0  0  0  0  0
   64.9650   82.3900   86.1740 C   0  0  0  0  0  0  0  0  0  0  0  0
   65.1840   83.6670   86.5070 C   0  0  0  0  0  0  0  0  0  0  0  0
   64.2870   84.7070   85.8680 C   0  0  0  0  0  0  0  0  0  0  0  0
   65.1370   85.5900   84.9630 C   0  0  0  0  0  0  0  0  0  0  0  0
   65.2530   85.0450   83.5560 C   0  0  0  0  0  0  0  0  0  0  0  0
   69.7740   80.1380   83.5320 C   0  0  0  0  0  0  0  0  0  0  0  0
   68.4340   82.9550   84.9680 C   0  0  0  0  0  0  0  0  0  0  0  0
   66.2890   84.1040   87.4630 C   0  0  0  0  0  0  0  0  0  0  0  0
   67.7520   78.1120   82.1030 C   0  0  0  0  0  0  0  0  0  0  0  0
   67.4530   79.0770   83.2290 C   0  0  0  0  0  0  0  0  0  0  0  0
   68.3290   79.9770   83.9000 C   0  0  0  0  0  0  0  0  0  0  0  0
   67.7890   80.7240   84.9530 C   0  0  0  0  0  0  0  0  0  0  0  0
   66.4470   80.5640   85.3340 C   0  0  0  0  0  0  0  0  0  0  0  0
   65.5990   79.6820   84.6580 C   0  0  0  0  0  0  0  0  0  0  0  0
   66.1280   78.9430   83.5880 C   0  0  0  0  0  0  0  0  0  0  0  0
   65.9220   81.2770   86.5480 C   0  0  0  0  0  0  0  0  0  0  0  0
   64.3260   77.6140   82.5880 O   0  0  0  0  0  0  0  0  0  0  0  0
   66.4440   77.4740   81.8970 O   0  0  0  0  0  0  0  0  0  0  0  0
   68.5890   81.6440   85.5490 O   0  0  0  0  0  0  0  0  0  0  0  0
   64.2880   79.5520   85.1000 O   0  0  0  0  0  0  0  0  0  0  0  0
   64.2030   84.7050   82.9660 O   0  0  0  0  0  0  0  0  0  0  0  0
   66.3930   84.9550   83.0450 O   0  0  0  0  0  0  0  0  0  0  0  0
   64.0561   82.1389   85.6075 H   0  0  0  0  0  0  0  0  0  0  0  0
   63.5068   84.2090   85.2736 H   0  0  0  0  0  0  0  0  0  0  0  0
   63.8058   85.3181   86.6458 H   0  0  0  0  0  0  0  0  0  0  0  0
   64.6799   86.5894   84.9166 H   0  0  0  0  0  0  0  0  0  0  0  0
   66.1501   85.6252   85.3900 H   0  0  0  0  0  0  0  0  0  0  0  0
   70.3802   80.2055   84.4474 H   0  0  0  0  0  0  0  0  0  0  0  0
   70.1003   79.2707   82.9393 H   0  0  0  0  0  0  0  0  0  0  0  0
   69.9014   81.0559   82.9393 H   0  0  0  0  0  0  0  0  0  0  0  0
   68.3455   83.7032   85.7695 H   0  0  0  0  0  0  0  0  0  0  0  0
   69.3111   83.1863   84.3457 H   0  0  0  0  0  0  0  0  0  0  0  0
   67.5272   82.9754   84.3457 H   0  0  0  0  0  0  0  0  0  0  0  0
   65.9501   83.9700   88.5009 H   0  0  0  0  0  0  0  0  0  0  0  0
   67.1872   83.4934   87.2888 H   0  0  0  0  0  0  0  0  0  0  0  0
   66.5266   85.1638   87.2888 H   0  0  0  0  0  0  0  0  0  0  0  0
   68.0854   78.6426   81.1990 H   0  0  0  0  0  0  0  0  0  0  0  0
   68.5624   77.4031   82.3279 H   0  0  0  0  0  0  0  0  0  0  0  0
   66.7689   81.7066   87.1031 H   0  0  0  0  0  0  0  0  0  0  0  0
   65.3758   80.5478   87.1644 H   0  0  0  0  0  0  0  0  0  0  0  0
   63.6687   78.9336   84.6373 H   0  0  0  0  0  0  0  0  0  0  0  0
   64.2472   84.3450   82.0448 H   0  0  0  0  0  0  0  0  0  0  0  0
  2  3  2  0
  3  4  1  0
  4  5  1  0
  5  6  1  0
  3  9  1  0
 10 11  1  0
  7 12  1  0
 11 12  1  0
 12 13  2  0
 13 14  1  0
 14 15  2  0
  1 16  1  0
 11 16  2  0
 15 16  1  0
  2 17  1  0
 14 17  1  0
  1 18  2  0
  1 19  1  0
 10 19  1  0
  8 20  1  0
 13 20  1  0
 15 21  1  0
  6 22  1  0
  6 23  2  0
  2 24  1  0
  4 25  1  0
  4 26  1  0
  5 27  1  0
  5 28  1  0
  7 29  1  0
  7 30  1  0
  7 31  1  0
  8 32  1  0
  8 33  1  0
  8 34  1  0
  9 35  1  0
  9 36  1  0
  9 37  1  0
 10 38  1  0
 10 39  1  0
 17 40  1  0
 17 41  1  0
 21 42  1  0
 22 43  1  0
M  END
$$$$
