PDB_DB00685_95
     RDKit          3D

 45 49  0  0  0  0  0  0  0  0999 V2000
    4.1640  132.9530  232.6190 C   0  0  0  0  0  0  0  0  0  0  0  0
    5.4130  132.6910  232.0740 C   0  0  0  0  0  0  0  0  0  0  0  0
    6.5540  133.1470  232.7080 C   0  0  0  0  0  0  0  0  0  0  0  0
    7.7250  132.9010  232.1940 F   0  0  0  0  0  0  0  0  0  0  0  0
    6.4460  133.8640  233.8910 C   0  0  0  0  0  0  0  0  0  0  0  0
    5.1990  134.1220  234.4340 C   0  0  0  0  0  0  0  0  0  0  0  0
    5.1020  134.8220  235.5860 F   0  0  0  0  0  0  0  0  0  0  0  0
    4.0480  133.6620  233.7990 C   0  0  0  0  0  0  0  0  0  0  0  0
    2.8060  133.9040  234.2920 N   0  0  0  0  0  0  0  0  0  0  0  0
    2.0640  132.8220  234.5550 C   0  0  0  0  0  0  0  0  0  0  0  0
    2.5700  131.6000  234.3450 N   0  0  0  0  0  0  0  0  0  0  0  0
    1.8800  130.4710  234.5750 C   0  0  0  0  0  0  0  0  0  0  0  0
    2.6010  129.2340  234.3000 N   0  0  0  0  0  0  0  0  0  0  0  0
    4.0320  129.2650  234.2220 C   0  0  0  0  0  0  0  0  0  0  0  0
    4.3710  127.8900  233.7580 C   0  0  1  0  0  0  0  0  0  0  0  0
    4.2840  126.8120  234.7800 C   0  0  0  0  0  0  0  0  0  0  0  0
    5.1190  125.5940  234.5600 N   0  0  0  0  0  0  0  0  0  0  0  0
    3.1400  127.0380  233.8370 C   0  0  1  0  0  0  0  0  0  0  0  0
    2.0030  127.9150  234.2770 C   0  0  0  0  0  0  0  0  0  0  0  0
    0.5940  130.5570  235.0740 C   0  0  0  0  0  0  0  0  0  0  0  0
    0.0350  131.8160  235.3090 C   0  0  0  0  0  0  0  0  0  0  0  0
    0.7770  132.9620  235.0470 C   0  0  0  0  0  0  0  0  0  0  0  0
    0.2590  134.2380  235.2680 C   0  0  0  0  0  0  0  0  0  0  0  0
    1.0640  135.3470  234.9770 C   0  0  0  0  0  0  0  0  0  0  0  0
    2.3480  135.1440  234.4830 C   0  0  0  0  0  0  0  0  0  0  0  0
    0.6180  136.7720  235.1650 C   0  0  0  0  0  0  0  0  0  0  0  0
   -0.5170  137.0160  235.6080 O   0  0  0  0  0  0  0  0  0  0  0  0
    1.3990  137.7080  234.8810 O   0  0  0  0  0  0  0  0  0  0  0  0
   -0.8830  134.3280  235.7030 O   0  0  0  0  0  0  0  0  0  0  0  0
   -0.1270  129.4710  235.3250 F   0  0  0  0  0  0  0  0  0  0  0  0
    3.2591  132.5933  232.1074 H   0  0  0  0  0  0  0  0  0  0  0  0
    5.4954  132.1203  231.1372 H   0  0  0  0  0  0  0  0  0  0  0  0
    7.3520  134.2277  234.3978 H   0  0  0  0  0  0  0  0  0  0  0  0
    4.3725  130.0215  233.4996 H   0  0  0  0  0  0  0  0  0  0  0  0
    4.5129  129.5325  235.1745 H   0  0  0  0  0  0  0  0  0  0  0  0
    5.1463  128.1492  233.0220 H   0  0  0  0  0  0  0  0  0  0  0  0
    4.3925  126.7676  235.8737 H   0  0  0  0  0  0  0  0  0  0  0  0
    5.3919  125.1959  235.4699 H   0  0  0  0  0  0  0  0  0  0  0  0
    4.5769  124.8974  234.0292 H   0  0  0  0  0  0  0  0  0  0  0  0
    2.5580  126.3330  233.2253 H   0  0  0  0  0  0  0  0  0  0  0  0
    1.6440  127.6259  235.2758 H   0  0  0  0  0  0  0  0  0  0  0  0
    1.1237  127.8484  233.6194 H   0  0  0  0  0  0  0  0  0  0  0  0
   -0.9896  131.9000  235.7003 H   0  0  0  0  0  0  0  0  0  0  0  0
    2.9883  136.0072  234.2489 H   0  0  0  0  0  0  0  0  0  0  0  0
   -0.8092  137.9538  235.7312 H   0  0  0  0  0  0  0  0  0  0  0  0
  1  2  2  0
  2  3  1  0
  3  4  1  0
  3  5  2  0
  5  6  1  0
  6  7  1  0
  1  8  1  0
  6  8  2  0
  8  9  1  0
  9 10  1  0
 10 11  2  0
 11 12  1  0
 12 13  1  0
 13 14  1  0
 14 15  1  0
 15 16  1  0
 16 17  1  0
 15 18  1  0
 16 18  1  0
 13 19  1  0
 18 19  1  0
 12 20  2  0
 20 21  1  0
 10 22  1  0
 21 22  2  0
 22 23  1  0
 23 24  1  0
  9 25  1  0
 24 25  2  0
 24 26  1  0
 26 27  1  0
 26 28  2  0
 23 29  2  0
 20 30  1  0
  1 31  1  0
  2 32  1  0
  5 33  1  0
 14 34  1  0
 14 35  1  0
 15 36  1  6
 16 37  1  0
 17 38  1  0
 17 39  1  0
 18 40  1  6
 19 41  1  0
 19 42  1  0
 21 43  1  0
 25 44  1  0
 27 45  1  0
M  END
$$$$
