PDB_DB01336_98
     RDKit          3D

 96102  0  0  0  0  0  0  0  0999 V2000
  -15.6320  -45.5380    6.2020 N   0  0  0  0  0  0  0  0  0  0  0  0
  -15.1420  -44.1280    6.3370 C   0  0  0  0  0  0  0  0  0  0  0  0
  -13.6110  -44.0170    6.1610 C   0  0  0  0  0  0  0  0  0  0  0  0
  -13.1520  -44.8200    4.9940 C   0  0  0  0  0  0  0  0  0  0  0  0
  -14.0030  -45.7110    4.3550 C   0  0  0  0  0  0  0  0  0  0  0  0
  -15.4620  -45.9180    4.7680 C   0  0  2  0  0  0  0  0  0  0  0  0
  -11.8400  -44.5630    4.5190 C   0  0  0  0  0  0  0  0  0  0  0  0
  -11.3110  -45.2320    3.4340 C   0  0  0  0  0  0  0  0  0  0  0  0
  -12.1620  -46.1350    2.7980 C   0  0  0  0  0  0  0  0  0  0  0  0
  -13.4760  -46.3380    3.2240 C   0  0  0  0  0  0  0  0  0  0  0  0
  -11.6890  -46.8270    1.7150 O   0  0  0  0  0  0  0  0  0  0  0  0
  -12.1160  -48.1300    1.6120 C   0  0  0  0  0  0  0  0  0  0  0  0
  -11.5590  -49.0980    2.4200 C   0  0  0  0  0  0  0  0  0  0  0  0
  -12.0040  -50.4260    2.3190 C   0  0  0  0  0  0  0  0  0  0  0  0
  -13.0230  -50.7400    1.4100 C   0  0  0  0  0  0  0  0  0  0  0  0
  -13.5880  -49.7460    0.5840 C   0  0  0  0  0  0  0  0  0  0  0  0
  -13.1350  -48.4420    0.7220 C   0  0  0  0  0  0  0  0  0  0  0  0
  -14.7470  -50.1160   -0.3600 C   0  0  0  0  0  0  0  0  0  0  0  0
  -14.6630  -49.6150   -1.7920 C   0  0  1  0  0  0  0  0  0  0  0  0
  -13.9340  -50.5690   -2.6840 N   0  0  0  0  0  0  0  0  0  0  0  0
  -14.7460  -51.8050   -2.8800 C   0  0  0  0  0  0  0  0  0  0  0  0
  -16.1410  -51.5190   -3.4830 C   0  0  0  0  0  0  0  0  0  0  0  0
  -16.7260  -50.1480   -3.1270 C   0  0  0  0  0  0  0  0  0  0  0  0
  -15.9990  -49.2590   -2.3260 C   0  0  0  0  0  0  0  0  0  0  0  0
  -17.9790  -49.7410   -3.7140 C   0  0  0  0  0  0  0  0  0  0  0  0
  -18.5070  -48.4630   -3.4430 C   0  0  0  0  0  0  0  0  0  0  0  0
  -17.7870  -47.6170   -2.6230 C   0  0  0  0  0  0  0  0  0  0  0  0
  -16.5490  -47.9860   -2.0900 C   0  0  0  0  0  0  0  0  0  0  0  0
  -15.8550  -47.0200   -1.3930 O   0  0  0  0  0  0  0  0  0  0  0  0
  -16.0450  -46.5960   -0.0780 C   0  0  0  0  0  0  0  0  0  0  0  0
  -15.5200  -45.3650    0.2420 C   0  0  0  0  0  0  0  0  0  0  0  0
  -15.7010  -44.8660    1.5000 C   0  0  0  0  0  0  0  0  0  0  0  0
  -16.3830  -45.6060    2.4670 C   0  0  0  0  0  0  0  0  0  0  0  0
  -16.9500  -46.8780    2.1450 C   0  0  0  0  0  0  0  0  0  0  0  0
  -16.7530  -47.3350    0.8180 C   0  0  0  0  0  0  0  0  0  0  0  0
  -16.4050  -45.0490    3.8740 C   0  0  0  0  0  0  0  0  0  0  0  0
  -10.0240  -44.9850    2.9370 O   0  0  0  0  0  0  0  0  0  0  0  0
   -9.0040  -44.8270    3.9300 C   0  0  0  0  0  0  0  0  0  0  0  0
  -10.5800  -48.7010    3.2680 O   0  0  0  0  0  0  0  0  0  0  0  0
  -19.7020  -47.9920   -4.0160 O   0  0  0  0  0  0  0  0  0  0  0  0
  -20.1730  -48.7790   -5.1130 C   0  0  0  0  0  0  0  0  0  0  0  0
  -18.3370  -46.3750   -2.3650 O   0  0  0  0  0  0  0  0  0  0  0  0
  -14.8750  -46.5410    7.0740 C   0  0  0  0  0  0  0  0  0  0  0  0
  -13.7110  -49.9380   -3.9890 C   0  0  0  0  0  0  0  0  0  0  0  0
  -12.6760  -50.9050   -1.9310 C   0  0  0  0  0  0  0  0  0  0  0  0
  -17.6430  -45.1970   -2.6780 C   0  0  0  0  0  0  0  0  0  0  0  0
  -17.0370  -45.5010    6.6600 C   0  0  0  0  0  0  0  0  0  0  0  0
   -9.8080  -49.5620    4.1110 C   0  0  0  0  0  0  0  0  0  0  0  0
  -15.6315  -43.5090    5.5706 H   0  0  0  0  0  0  0  0  0  0  0  0
  -15.3888  -43.7829    7.3519 H   0  0  0  0  0  0  0  0  0  0  0  0
  -13.3422  -42.9624    6.0010 H   0  0  0  0  0  0  0  0  0  0  0  0
  -13.1234  -44.4037    7.0680 H   0  0  0  0  0  0  0  0  0  0  0  0
  -15.7267  -46.9774    4.6351 H   0  0  0  0  0  0  0  0  0  0  0  0
  -11.2258  -43.8076    5.0311 H   0  0  0  0  0  0  0  0  0  0  0  0
  -14.1205  -47.0175    2.6469 H   0  0  0  0  0  0  0  0  0  0  0  0
  -11.5575  -51.2113    2.9467 H   0  0  0  0  0  0  0  0  0  0  0  0
  -13.3872  -51.7756    1.3396 H   0  0  0  0  0  0  0  0  0  0  0  0
  -13.5898  -47.6435    0.1174 H   0  0  0  0  0  0  0  0  0  0  0  0
  -14.8066  -51.2138   -0.3964 H   0  0  0  0  0  0  0  0  0  0  0  0
  -15.6295  -49.6149    0.0645 H   0  0  0  0  0  0  0  0  0  0  0  0
  -14.0667  -48.6908   -1.7740 H   0  0  0  0  0  0  0  0  0  0  0  0
  -14.2018  -52.4786   -3.5583 H   0  0  0  0  0  0  0  0  0  0  0  0
  -14.9009  -52.2587   -1.8900 H   0  0  0  0  0  0  0  0  0  0  0  0
  -16.0600  -51.5826   -4.5782 H   0  0  0  0  0  0  0  0  0  0  0  0
  -16.8233  -52.2677   -3.0541 H   0  0  0  0  0  0  0  0  0  0  0  0
  -18.5242  -50.4305   -4.3754 H   0  0  0  0  0  0  0  0  0  0  0  0
  -14.9597  -44.7883   -0.5087 H   0  0  0  0  0  0  0  0  0  0  0  0
  -15.3056  -43.8714    1.7537 H   0  0  0  0  0  0  0  0  0  0  0  0
  -17.5081  -47.4692    2.8859 H   0  0  0  0  0  0  0  0  0  0  0  0
  -17.1786  -48.3009    0.5083 H   0  0  0  0  0  0  0  0  0  0  0  0
  -17.4301  -45.0857    4.2713 H   0  0  0  0  0  0  0  0  0  0  0  0
  -16.0620  -44.0038    3.8703 H   0  0  0  0  0  0  0  0  0  0  0  0
   -9.4534  -44.8966    4.9316 H   0  0  0  0  0  0  0  0  0  0  0  0
   -8.2501  -45.6191    3.8105 H   0  0  0  0  0  0  0  0  0  0  0  0
   -8.5251  -43.8440    3.8105 H   0  0  0  0  0  0  0  0  0  0  0  0
  -20.7024  -49.6635   -4.7291 H   0  0  0  0  0  0  0  0  0  0  0  0
  -20.8602  -48.1782   -5.7269 H   0  0  0  0  0  0  0  0  0  0  0  0
  -19.3188  -49.1007   -5.7269 H   0  0  0  0  0  0  0  0  0  0  0  0
  -15.0497  -46.3095    8.1351 H   0  0  0  0  0  0  0  0  0  0  0  0
  -15.2323  -47.5585    6.8570 H   0  0  0  0  0  0  0  0  0  0  0  0
  -13.7986  -46.4764    6.8570 H   0  0  0  0  0  0  0  0  0  0  0  0
  -13.3478  -48.9102   -3.8420 H   0  0  0  0  0  0  0  0  0  0  0  0
  -12.9622  -50.5146   -4.5519 H   0  0  0  0  0  0  0  0  0  0  0  0
  -14.6558  -49.9160   -4.5519 H   0  0  0  0  0  0  0  0  0  0  0  0
  -12.8709  -50.8529   -0.8497 H   0  0  0  0  0  0  0  0  0  0  0  0
  -12.3503  -51.9216   -2.1963 H   0  0  0  0  0  0  0  0  0  0  0  0
  -11.8868  -50.1862   -2.1963 H   0  0  0  0  0  0  0  0  0  0  0  0
  -17.3441  -44.6896   -1.7489 H   0  0  0  0  0  0  0  0  0  0  0  0
  -16.7465  -45.4446   -3.2653 H   0  0  0  0  0  0  0  0  0  0  0  0
  -18.2941  -44.5329   -3.2653 H   0  0  0  0  0  0  0  0  0  0  0  0
  -17.0643  -45.5003    7.7597 H   0  0  0  0  0  0  0  0  0  0  0  0
  -17.5225  -44.5898    6.2806 H   0  0  0  0  0  0  0  0  0  0  0  0
  -17.5698  -46.3854    6.2806 H   0  0  0  0  0  0  0  0  0  0  0  0
  -10.0180  -49.3277    5.1650 H   0  0  0  0  0  0  0  0  0  0  0  0
  -10.0750  -50.6096    3.9080 H   0  0  0  0  0  0  0  0  0  0  0  0
   -8.7376  -49.4105    3.9080 H   0  0  0  0  0  0  0  0  0  0  0  0
  1  2  1  0
  2  3  1  0
  3  4  1  0
  4  5  2  0
  1  6  1  0
  5  6  1  0
  4  7  1  0
  7  8  2  0
  8  9  1  0
  5 10  1  0
  9 10  2  0
  9 11  1  0
 11 12  1  0
 12 13  2  0
 13 14  1  0
 14 15  2  0
 15 16  1  0
 12 17  1  0
 16 17  2  0
 16 18  1  0
 18 19  1  0
 19 20  1  0
 20 21  1  0
 21 22  1  0
 22 23  1  0
 19 24  1  0
 23 24  2  0
 23 25  1  0
 25 26  2  0
 26 27  1  0
 24 28  1  0
 27 28  2  0
 28 29  1  0
 29 30  1  0
 30 31  2  0
 31 32  1  0
 32 33  2  0
 33 34  1  0
 30 35  1  0
 34 35  2  0
  6 36  1  0
 33 36  1  0
  8 37  1  0
 37 38  1  0
 13 39  1  0
 26 40  1  0
 40 41  1  0
 27 42  1  0
  1 43  1  0
 20 44  1  0
 20 45  1  0
 42 46  1  0
  1 47  1  0
 39 48  1  0
  2 49  1  0
  2 50  1  0
  3 51  1  0
  3 52  1  0
  6 53  1  1
  7 54  1  0
 10 55  1  0
 14 56  1  0
 15 57  1  0
 17 58  1  0
 18 59  1  0
 18 60  1  0
 19 61  1  1
 21 62  1  0
 21 63  1  0
 22 64  1  0
 22 65  1  0
 25 66  1  0
 31 67  1  0
 32 68  1  0
 34 69  1  0
 35 70  1  0
 36 71  1  0
 36 72  1  0
 38 73  1  0
 38 74  1  0
 38 75  1  0
 41 76  1  0
 41 77  1  0
 41 78  1  0
 43 79  1  0
 43 80  1  0
 43 81  1  0
 44 82  1  0
 44 83  1  0
 44 84  1  0
 45 85  1  0
 45 86  1  0
 45 87  1  0
 46 88  1  0
 46 89  1  0
 46 90  1  0
 47 91  1  0
 47 92  1  0
 47 93  1  0
 48 94  1  0
 48 95  1  0
 48 96  1  0
M  CHG  2   1   1  20   1
M  END
$$$$
