PDB_DB08901_98
     RDKit          3D

 66 70  0  0  0  0  0  0  0  0999 V2000
    4.2030   42.3560   16.4500 N   0  0  0  0  0  0  0  0  0  0  0  0
    7.8320   27.0100   11.7140 N   0  0  0  0  0  0  0  0  0  0  0  0
    3.1950   37.6460   16.4530 C   0  0  0  0  0  0  0  0  0  0  0  0
    3.2250   36.1890   16.6460 C   0  0  0  0  0  0  0  0  0  0  0  0
    2.6120   35.5410   17.7820 C   0  0  0  0  0  0  0  0  0  0  0  0
    2.7010   34.1180   17.9070 C   0  0  0  0  0  0  0  0  0  0  0  0
    3.3930   33.3260   16.9110 C   0  0  0  0  0  0  0  0  0  0  0  0
    3.9000   35.4100   15.6750 C   0  0  0  0  0  0  0  0  0  0  0  0
    5.7840   31.0310   14.2210 C   0  0  0  0  0  0  0  0  0  0  0  0
    6.4820   28.7300   13.6720 C   0  0  0  0  0  0  0  0  0  0  0  0
    7.8900   30.6190   12.8970 C   0  0  0  0  0  0  0  0  0  0  0  0
    8.5660   28.1100   12.3430 C   0  0  0  0  0  0  0  0  0  0  0  0
    7.0530   27.4310   10.5130 C   0  0  0  0  0  0  0  0  0  0  0  0
    6.2260   26.2590    9.9150 C   0  0  0  0  0  0  0  0  0  0  0  0
    8.7320   25.8720   11.3710 C   0  0  0  0  0  0  0  0  0  0  0  0
    2.5220   43.4160   14.8430 C   0  0  0  0  0  0  0  0  0  0  0  0
    1.4540   43.0780   14.0140 C   0  0  0  0  0  0  0  0  0  0  0  0
    1.0430   41.7160   13.9270 C   0  0  0  0  0  0  0  0  0  0  0  0
    1.5970   40.6780   14.5940 N   0  0  0  0  0  0  0  0  0  0  0  0
    2.6390   41.0600   15.3970 N   0  0  0  0  0  0  0  0  0  0  0  0
    3.1730   42.3780   15.5890 C   0  0  0  0  0  0  0  0  0  0  0  0
    4.3450   41.0160   16.8230 C   0  0  0  0  0  0  0  0  0  0  0  0
    3.4050   40.2460   16.1920 C   0  0  0  0  0  0  0  0  0  0  0  0
    3.2550   38.8440   16.3240 C   0  0  0  0  0  0  0  0  0  0  0  0
    3.9960   33.9830   15.7850 C   0  0  0  0  0  0  0  0  0  0  0  0
    1.8790   36.3380   18.8690 C   0  0  0  0  0  0  0  0  0  0  0  0
    4.7440   33.2450   14.7220 C   0  0  0  0  0  0  0  0  0  0  0  0
    5.2880   33.8860   13.8340 O   0  0  0  0  0  0  0  0  0  0  0  0
    4.8280   31.8960   14.8450 N   0  0  0  0  0  0  0  0  0  0  0  0
    5.5610   29.6430   14.2900 C   0  0  0  0  0  0  0  0  0  0  0  0
    7.6400   29.1890   12.9780 C   0  0  0  0  0  0  0  0  0  0  0  0
    6.9560   31.5150   13.5230 C   0  0  0  0  0  0  0  0  0  0  0  0
    9.1010   31.2200   12.1810 C   0  0  0  0  0  0  0  0  0  0  0  0
    9.0390   31.0090   10.8870 F   0  0  0  0  0  0  0  0  0  0  0  0
    9.1650   32.5160   12.3310 F   0  0  0  0  0  0  0  0  0  0  0  0
   10.2290   30.6850   12.6790 F   0  0  0  0  0  0  0  0  0  0  0  0
    7.9100   24.6800   10.8100 C   0  0  0  0  0  0  0  0  0  0  0  0
    6.2420   23.9530    9.1820 C   0  0  0  0  0  0  0  0  0  0  0  0
    7.0760   25.0740    9.6240 N   0  0  0  0  0  0  0  0  0  0  0  0
    2.2377   33.6191   18.7710 H   0  0  0  0  0  0  0  0  0  0  0  0
    3.4561   32.2328   17.0159 H   0  0  0  0  0  0  0  0  0  0  0  0
    4.3632   35.9127   14.8132 H   0  0  0  0  0  0  0  0  0  0  0  0
    6.2889   27.6490   13.7358 H   0  0  0  0  0  0  0  0  0  0  0  0
    9.2086   27.6936   13.1328 H   0  0  0  0  0  0  0  0  0  0  0  0
    9.1474   28.6063   11.5520 H   0  0  0  0  0  0  0  0  0  0  0  0
    6.3655   28.2399   10.8013 H   0  0  0  0  0  0  0  0  0  0  0  0
    7.7663   27.7690    9.7468 H   0  0  0  0  0  0  0  0  0  0  0  0
    5.4466   25.9696   10.6353 H   0  0  0  0  0  0  0  0  0  0  0  0
    5.7828   26.6020    8.9685 H   0  0  0  0  0  0  0  0  0  0  0  0
    9.4579   26.2002   10.6125 H   0  0  0  0  0  0  0  0  0  0  0  0
    9.2566   25.5459   12.2812 H   0  0  0  0  0  0  0  0  0  0  0  0
    2.8597   44.4598   14.9238 H   0  0  0  0  0  0  0  0  0  0  0  0
    0.9339   43.8539   13.4331 H   0  0  0  0  0  0  0  0  0  0  0  0
    0.2001   41.4888   13.2577 H   0  0  0  0  0  0  0  0  0  0  0  0
    5.1032   40.6350   17.5230 H   0  0  0  0  0  0  0  0  0  0  0  0
    2.2012   35.9877   19.8607 H   0  0  0  0  0  0  0  0  0  0  0  0
    2.1162   37.4069   18.7628 H   0  0  0  0  0  0  0  0  0  0  0  0
    0.7941   36.1909   18.7628 H   0  0  0  0  0  0  0  0  0  0  0  0
    4.1288   31.4457   15.4527 H   0  0  0  0  0  0  0  0  0  0  0  0
    4.6779   29.2557   14.8193 H   0  0  0  0  0  0  0  0  0  0  0  0
    7.1372   32.5987   13.4700 H   0  0  0  0  0  0  0  0  0  0  0  0
    8.6043   23.8829   10.5057 H   0  0  0  0  0  0  0  0  0  0  0  0
    7.2290   24.3367   11.6027 H   0  0  0  0  0  0  0  0  0  0  0  0
    5.8466   23.4216   10.0602 H   0  0  0  0  0  0  0  0  0  0  0  0
    5.4061   24.3341    8.5770 H   0  0  0  0  0  0  0  0  0  0  0  0
    6.8473   23.2619    8.5770 H   0  0  0  0  0  0  0  0  0  0  0  0
  3  4  1  0
  4  5  2  0
  5  6  1  0
  6  7  2  0
  4  8  1  0
  2 12  1  0
  2 13  1  0
 13 14  1  0
  2 15  1  0
 16 17  2  0
 17 18  1  0
 18 19  2  0
 19 20  1  0
  1 21  2  0
 16 21  1  0
 20 21  1  0
  1 22  1  0
 20 23  1  0
 22 23  2  0
  3 24  3  0
 23 24  1  0
  7 25  1  0
  8 25  2  0
  5 26  1  0
 25 27  1  0
 27 28  2  0
  9 29  1  0
 27 29  1  0
  9 30  1  0
 10 30  2  0
 10 31  1  0
 11 31  2  0
 12 31  1  0
  9 32  2  0
 11 32  1  0
 11 33  1  0
 33 34  1  0
 33 35  1  0
 33 36  1  0
 15 37  1  0
 14 39  1  0
 37 39  1  0
 38 39  1  0
  6 40  1  0
  7 41  1  0
  8 42  1  0
 10 43  1  0
 12 44  1  0
 12 45  1  0
 13 46  1  0
 13 47  1  0
 14 48  1  0
 14 49  1  0
 15 50  1  0
 15 51  1  0
 16 52  1  0
 17 53  1  0
 18 54  1  0
 22 55  1  0
 26 56  1  0
 26 57  1  0
 26 58  1  0
 29 59  1  0
 30 60  1  0
 32 61  1  0
 37 62  1  0
 37 63  1  0
 38 64  1  0
 38 65  1  0
 38 66  1  0
M  END
$$$$
