PDB_DB04868_96
     RDKit          3D

 61 65  0  0  0  0  0  0  0  0999 V2000
   23.6190   58.3870  101.3840 O   0  0  0  0  0  0  0  0  0  0  0  0
   24.1220   59.0950  102.2310 C   0  0  0  0  0  0  0  0  0  0  0  0
   25.1710   58.7320  102.9640 N   0  0  0  0  0  0  0  0  0  0  0  0
   25.7770   57.4640  102.9480 C   0  0  0  0  0  0  0  0  0  0  0  0
   26.5410   57.0920  104.0490 C   0  0  0  0  0  0  0  0  0  0  0  0
   27.2270   55.8640  104.1090 C   0  0  0  0  0  0  0  0  0  0  0  0
   27.9700   55.5140  105.2580 N   0  0  0  0  0  0  0  0  0  0  0  0
   28.8180   56.3640  106.0120 C   0  0  0  0  0  0  0  0  0  0  0  0
   29.3500   55.5920  107.0240 C   0  0  0  0  0  0  0  0  0  0  0  0
   30.3290   56.0300  108.1170 C   0  0  0  0  0  0  0  0  0  0  0  0
   28.8390   54.3070  106.9250 N   0  0  0  0  0  0  0  0  0  0  0  0
   28.0120   54.2890  105.8550 C   0  0  0  0  0  0  0  0  0  0  0  0
   27.1520   55.0020  103.0080 C   0  0  0  0  0  0  0  0  0  0  0  0
   25.7580   56.6060  101.8250 C   0  0  0  0  0  0  0  0  0  0  0  0
   26.4150   55.3650  101.8560 C   0  0  0  0  0  0  0  0  0  0  0  0
   26.3300   54.4360  100.6690 C   0  0  0  0  0  0  0  0  0  0  0  0
   26.6020   55.0900   99.5050 F   0  0  0  0  0  0  0  0  0  0  0  0
   27.2130   53.4090  100.8120 F   0  0  0  0  0  0  0  0  0  0  0  0
   25.1000   53.8880  100.5160 F   0  0  0  0  0  0  0  0  0  0  0  0
   23.6810   60.5230  102.3350 C   0  0  0  0  0  0  0  0  0  0  0  0
   24.2210   61.4970  103.2090 C   0  0  0  0  0  0  0  0  0  0  0  0
   23.8180   62.8450  103.1770 C   0  0  0  0  0  0  0  0  0  0  0  0
   22.8280   63.2510  102.2460 C   0  0  0  0  0  0  0  0  0  0  0  0
   22.4280   64.6900  102.3080 C   0  0  0  0  0  0  0  0  0  0  0  0
   22.3300   62.3130  101.2990 C   0  0  0  0  0  0  0  0  0  0  0  0
   22.7480   60.9840  101.3800 C   0  0  0  0  0  0  0  0  0  0  0  0
   21.2360   62.5560  100.4470 N   0  0  0  0  0  0  0  0  0  0  0  0
   19.9470   62.2700  100.8970 C   0  0  0  0  0  0  0  0  0  0  0  0
   19.5450   61.7630  102.0430 N   0  0  0  0  0  0  0  0  0  0  0  0
   18.2140   61.6070  102.2040 C   0  0  0  0  0  0  0  0  0  0  0  0
   17.3300   61.9240  101.2380 C   0  0  0  0  0  0  0  0  0  0  0  0
   17.7740   62.4470  100.0760 C   0  0  0  0  0  0  0  0  0  0  0  0
   19.0880   62.5940   99.9020 N   0  0  0  0  0  0  0  0  0  0  0  0
   16.8680   62.7880   98.9310 C   0  0  0  0  0  0  0  0  0  0  0  0
   15.4790   62.6390   99.0280 C   0  0  0  0  0  0  0  0  0  0  0  0
   14.6450   62.9740   97.9330 C   0  0  0  0  0  0  0  0  0  0  0  0
   15.2380   63.4120   96.7730 C   0  0  0  0  0  0  0  0  0  0  0  0
   16.5780   63.5190   96.6350 N   0  0  0  0  0  0  0  0  0  0  0  0
   17.3480   63.2050   97.6940 C   0  0  0  0  0  0  0  0  0  0  0  0
   25.5727   59.4392  103.5960 H   0  0  0  0  0  0  0  0  0  0  0  0
   26.6118   57.7816  104.9031 H   0  0  0  0  0  0  0  0  0  0  0  0
   29.0135   57.4305  105.8264 H   0  0  0  0  0  0  0  0  0  0  0  0
   29.8877   55.8326  109.1051 H   0  0  0  0  0  0  0  0  0  0  0  0
   31.2681   55.4662  108.0155 H   0  0  0  0  0  0  0  0  0  0  0  0
   30.5345   57.1059  108.0155 H   0  0  0  0  0  0  0  0  0  0  0  0
   27.4504   53.4071  105.5133 H   0  0  0  0  0  0  0  0  0  0  0  0
   27.6713   54.0328  103.0390 H   0  0  0  0  0  0  0  0  0  0  0  0
   25.2219   56.9141  100.9152 H   0  0  0  0  0  0  0  0  0  0  0  0
   24.9833   61.1890  103.9397 H   0  0  0  0  0  0  0  0  0  0  0  0
   24.2659   63.5758  103.8665 H   0  0  0  0  0  0  0  0  0  0  0  0
   22.3414   65.0015  103.3594 H   0  0  0  0  0  0  0  0  0  0  0  0
   23.1895   65.3042  101.8051 H   0  0  0  0  0  0  0  0  0  0  0  0
   21.4588   64.8232  101.8051 H   0  0  0  0  0  0  0  0  0  0  0  0
   22.3304   60.2599  100.6650 H   0  0  0  0  0  0  0  0  0  0  0  0
   21.3855   62.9402   99.5031 H   0  0  0  0  0  0  0  0  0  0  0  0
   17.8379   61.2071  103.1572 H   0  0  0  0  0  0  0  0  0  0  0  0
   16.2541   61.7577  101.3954 H   0  0  0  0  0  0  0  0  0  0  0  0
   15.0332   62.2598   99.9594 H   0  0  0  0  0  0  0  0  0  0  0  0
   13.5512   62.8859   98.0091 H   0  0  0  0  0  0  0  0  0  0  0  0
   14.5961   63.6864   95.9229 H   0  0  0  0  0  0  0  0  0  0  0  0
   18.4383   63.2842   97.5717 H   0  0  0  0  0  0  0  0  0  0  0  0
  1  2  2  0
  2  3  1  0
  3  4  1  0
  4  5  2  0
  5  6  1  0
  6  7  1  0
  7  8  1  0
  8  9  2  0
  9 10  1  0
  9 11  1  0
  7 12  1  0
 11 12  2  0
  6 13  2  0
  4 14  1  0
 13 15  1  0
 14 15  2  0
 15 16  1  0
 16 17  1  0
 16 18  1  0
 16 19  1  0
  2 20  1  0
 20 21  2  0
 21 22  1  0
 22 23  2  0
 23 24  1  0
 23 25  1  0
 20 26  1  0
 25 26  2  0
 25 27  1  0
 27 28  1  0
 28 29  2  0
 29 30  1  0
 30 31  2  0
 31 32  1  0
 28 33  1  0
 32 33  2  0
 32 34  1  0
 34 35  2  0
 35 36  1  0
 36 37  2  0
 37 38  1  0
 34 39  1  0
 38 39  2  0
  3 40  1  0
  5 41  1  0
  8 42  1  0
 10 43  1  0
 10 44  1  0
 10 45  1  0
 12 46  1  0
 13 47  1  0
 14 48  1  0
 21 49  1  0
 22 50  1  0
 24 51  1  0
 24 52  1  0
 24 53  1  0
 26 54  1  0
 27 55  1  0
 30 56  1  0
 31 57  1  0
 35 58  1  0
 36 59  1  0
 37 60  1  0
 39 61  1  0
M  END
$$$$
