PDB_DB00188_90
     RDKit          3D

 53 54  0  0  0  0  0  0  0  0999 V2000
    6.3990 -164.5040   34.0880 N   0  0  0  0  0  0  0  0  0  0  0  0
    6.9560 -163.3630   34.5400 C   0  0  0  0  0  0  0  0  0  0  0  0
    6.9120 -162.2100   33.7520 C   0  0  0  0  0  0  0  0  0  0  0  0
    6.2880 -162.2400   32.4950 N   0  0  0  0  0  0  0  0  0  0  0  0
    5.7120 -163.4340   32.0330 C   0  0  0  0  0  0  0  0  0  0  0  0
    5.7690 -164.5700   32.8330 C   0  0  0  0  0  0  0  0  0  0  0  0
    7.5640 -163.3670   35.7990 C   0  0  0  0  0  0  0  0  0  0  0  0
    8.2050 -164.3510   36.1700 O   0  0  0  0  0  0  0  0  0  0  0  0
    7.3820 -162.2610   36.5530 N   0  0  0  0  0  0  0  0  0  0  0  0
    7.9190 -162.1510   37.9210 C   0  0  1  0  0  0  0  0  0  0  0  0
    8.6590 -160.8480   38.1540 C   0  0  0  0  0  0  0  0  0  0  0  0
    9.8460 -160.8930   37.3950 C   0  0  0  0  0  0  0  0  0  0  0  0
   10.0310 -160.0380   36.3040 C   0  0  0  0  0  0  0  0  0  0  0  0
   11.2120 -160.0820   35.5620 C   0  0  0  0  0  0  0  0  0  0  0  0
   12.2220 -160.9800   35.9040 C   0  0  0  0  0  0  0  0  0  0  0  0
   12.0470 -161.8340   36.9920 C   0  0  0  0  0  0  0  0  0  0  0  0
   10.8670 -161.7870   37.7350 C   0  0  0  0  0  0  0  0  0  0  0  0
    6.7240 -162.2090   38.8760 C   0  0  0  0  0  0  0  0  0  0  0  0
    5.6170 -161.8200   38.5080 O   0  0  0  0  0  0  0  0  0  0  0  0
    6.9850 -162.7120   40.0960 N   0  0  0  0  0  0  0  0  0  0  0  0
    5.9290 -162.8590   41.1140 C   0  0  1  0  0  0  0  0  0  0  0  0
    5.8730 -164.2770   41.6420 C   0  0  0  0  0  0  0  0  0  0  0  0
    5.7390 -165.2750   40.4710 C   0  0  0  0  0  0  0  0  0  0  0  0
    5.9620 -166.6970   41.0200 C   0  0  0  0  0  0  0  0  0  0  0  0
    4.3640 -165.1710   39.7820 C   0  0  0  0  0  0  0  0  0  0  0  0
    6.1810 -161.9290   42.3170 B   0  0  0  0  0  0  0  0  0  0  0  0
    6.3000 -160.5720   41.8750 O   0  0  0  0  0  0  0  0  0  0  0  0
    7.3900 -162.3170   42.9890 O   0  0  0  0  0  0  0  0  0  0  0  0
    7.3670 -161.2775   34.1172 H   0  0  0  0  0  0  0  0  0  0  0  0
    5.2211 -163.4705   31.0493 H   0  0  0  0  0  0  0  0  0  0  0  0
    5.3240 -165.5142   32.4860 H   0  0  0  0  0  0  0  0  0  0  0  0
    6.8517 -161.4704   36.1598 H   0  0  0  0  0  0  0  0  0  0  0  0
    8.6374 -162.9675   38.0859 H   0  0  0  0  0  0  0  0  0  0  0  0
    8.0378 -160.0001   37.8296 H   0  0  0  0  0  0  0  0  0  0  0  0
    8.8870 -160.7177   39.2222 H   0  0  0  0  0  0  0  0  0  0  0  0
    9.2396 -159.3254   36.0286 H   0  0  0  0  0  0  0  0  0  0  0  0
   11.3464 -159.4061   34.7046 H   0  0  0  0  0  0  0  0  0  0  0  0
   13.1525 -161.0146   35.3183 H   0  0  0  0  0  0  0  0  0  0  0  0
   12.8401 -162.5457   37.2650 H   0  0  0  0  0  0  0  0  0  0  0  0
   10.7383 -162.4592   38.5962 H   0  0  0  0  0  0  0  0  0  0  0  0
    7.9466 -163.0016   40.3245 H   0  0  0  0  0  0  0  0  0  0  0  0
    4.9814 -162.5966   40.6208 H   0  0  0  0  0  0  0  0  0  0  0  0
    6.7953 -164.4937   42.2009 H   0  0  0  0  0  0  0  0  0  0  0  0
    5.0008 -164.3802   42.3043 H   0  0  0  0  0  0  0  0  0  0  0  0
    6.4941 -165.0356   39.7078 H   0  0  0  0  0  0  0  0  0  0  0  0
    5.9578 -166.6703   42.1197 H   0  0  0  0  0  0  0  0  0  0  0  0
    5.1564 -167.3572   40.6662 H   0  0  0  0  0  0  0  0  0  0  0  0
    6.9310 -167.0789   40.6662 H   0  0  0  0  0  0  0  0  0  0  0  0
    3.5747 -165.1113   40.5458 H   0  0  0  0  0  0  0  0  0  0  0  0
    4.3358 -164.2682   39.1542 H   0  0  0  0  0  0  0  0  0  0  0  0
    4.2003 -166.0593   39.1542 H   0  0  0  0  0  0  0  0  0  0  0  0
    6.3526 -159.9723   42.6610 H   0  0  0  0  0  0  0  0  0  0  0  0
    7.2520 -162.2727   43.9683 H   0  0  0  0  0  0  0  0  0  0  0  0
  1  2  2  0
  2  3  1  0
  3  4  2  0
  4  5  1  0
  1  6  1  0
  5  6  2  0
  2  7  1  0
  7  8  2  0
  7  9  1  0
  9 10  1  0
 10 11  1  0
 11 12  1  0
 12 13  2  0
 13 14  1  0
 14 15  2  0
 15 16  1  0
 12 17  1  0
 16 17  2  0
 10 18  1  0
 18 19  2  0
 18 20  1  0
 20 21  1  0
 21 22  1  0
 22 23  1  0
 23 24  1  0
 23 25  1  0
 21 26  1  0
 26 27  1  0
 26 28  1  0
  3 29  1  0
  5 30  1  0
  6 31  1  0
  9 32  1  0
 10 33  1  1
 11 34  1  0
 11 35  1  0
 13 36  1  0
 14 37  1  0
 15 38  1  0
 16 39  1  0
 17 40  1  0
 20 41  1  0
 21 42  1  6
 22 43  1  0
 22 44  1  0
 23 45  1  0
 24 46  1  0
 24 47  1  0
 24 48  1  0
 25 49  1  0
 25 50  1  0
 25 51  1  0
 27 52  1  0
 28 53  1  0
M  END
$$$$
