PDB_DB00560_97
     RDKit          3D

 81 84  0  0  0  0  0  0  0  0999 V2000
 -122.4090   20.5490  -24.4890 C   0  0  0  0  0  0  0  0  0  0  0  0
 -122.4210   20.4400  -26.0090 C   0  0  0  0  0  0  0  0  0  0  0  0
 -121.1410   19.7600  -26.4830 C   0  0  0  0  0  0  0  0  0  0  0  0
 -123.6260   19.6170  -26.4470 C   0  0  0  0  0  0  0  0  0  0  0  0
 -122.6080   21.8090  -26.6160 N   0  0  0  0  0  0  0  0  0  0  0  0
 -121.5150   22.7070  -27.0730 C   0  0  0  0  0  0  0  0  0  0  0  0
 -120.7530   23.2690  -25.8880 C   0  0  0  0  0  0  0  0  0  0  0  0
 -119.5450   23.0800  -25.7900 O   0  0  0  0  0  0  0  0  0  0  0  0
 -121.4920   23.9580  -24.9830 N   0  0  0  0  0  0  0  0  0  0  0  0
 -121.1900   24.2590  -23.6230 C   0  0  0  0  0  0  0  0  0  0  0  0
 -120.0950   23.6920  -22.9670 C   0  0  0  0  0  0  0  0  0  0  0  0
 -119.7680   23.9390  -21.6430 C   0  0  0  0  0  0  0  0  0  0  0  0
 -118.5000   23.3770  -21.1040 N   0  0  0  0  0  0  0  0  0  0  0  0
 -117.3560   23.5000  -22.0540 C   0  0  0  0  0  0  0  0  0  0  0  0
 -118.6510   21.9780  -20.6090 C   0  0  0  0  0  0  0  0  0  0  0  0
 -120.5860   24.8020  -20.8410 C   0  0  0  0  0  0  0  0  0  0  0  0
 -120.3200   25.0140  -19.3640 C   0  0  0  0  0  0  0  0  0  0  0  0
 -121.6140   25.2360  -18.5700 C   0  0  1  0  0  0  0  0  0  0  0  0
 -121.3670   25.4650  -17.0750 C   0  0  0  0  0  0  0  0  0  0  0  0
 -122.6010   26.0270  -16.3590 C   0  0  1  0  0  0  0  0  0  0  0  0
 -122.4010   26.0410  -14.8270 C   0  0  2  0  0  0  0  0  0  0  0  0
 -123.5930   25.5720  -14.0290 N   0  0  0  0  0  0  0  0  0  0  0  0
 -123.9680   24.1420  -14.2260 C   0  0  0  0  0  0  0  0  0  0  0  0
 -124.7760   26.4840  -13.9490 C   0  0  0  0  0  0  0  0  0  0  0  0
 -121.8130   27.3970  -14.2920 C   0  0  0  0  0  0  0  0  0  0  0  0
 -121.6230   27.2810  -12.9660 O   0  0  0  0  0  0  0  0  0  0  0  0
 -121.5340   28.5020  -15.0680 C   0  0  0  0  0  0  0  0  0  0  0  0
 -120.8860   29.6770  -14.4500 C   0  0  0  0  0  0  0  0  0  0  0  0
 -120.8080   29.7760  -13.2090 O   0  0  0  0  0  0  0  0  0  0  0  0
 -120.3090   30.5770  -15.2410 N   0  0  0  0  0  0  0  0  0  0  0  0
 -121.8780   28.4710  -16.5000 C   0  0  0  0  0  0  0  0  0  0  0  0
 -121.3520   29.1720  -17.3450 O   0  0  0  0  0  0  0  0  0  0  0  0
 -122.9310   27.4110  -16.9320 C   0  0  2  0  0  0  0  0  0  0  0  0
 -124.1830   27.8520  -16.4450 O   0  0  0  0  0  0  0  0  0  0  0  0
 -123.0170   27.3320  -18.4500 C   0  0  0  0  0  0  0  0  0  0  0  0
 -123.7440   28.3100  -18.9570 O   0  0  0  0  0  0  0  0  0  0  0  0
 -122.4260   26.3540  -19.1930 C   0  0  0  0  0  0  0  0  0  0  0  0
 -122.5270   26.3740  -20.6880 C   0  0  0  0  0  0  0  0  0  0  0  0
 -123.2520   27.1750  -21.2590 O   0  0  0  0  0  0  0  0  0  0  0  0
 -121.6750   25.4510  -21.4740 C   0  0  0  0  0  0  0  0  0  0  0  0
 -121.9590   25.1640  -22.8510 C   0  0  0  0  0  0  0  0  0  0  0  0
 -123.0070   25.7500  -23.5110 O   0  0  0  0  0  0  0  0  0  0  0  0
 -122.5193   19.5470  -24.0487 H   0  0  0  0  0  0  0  0  0  0  0  0
 -121.4568   20.9910  -24.1606 H   0  0  0  0  0  0  0  0  0  0  0  0
 -123.2423   21.1876  -24.1606 H   0  0  0  0  0  0  0  0  0  0  0  0
 -120.5486   19.4453  -25.6112 H   0  0  0  0  0  0  0  0  0  0  0  0
 -121.3969   18.8789  -27.0898 H   0  0  0  0  0  0  0  0  0  0  0  0
 -120.5542   20.4653  -27.0898 H   0  0  0  0  0  0  0  0  0  0  0  0
 -124.1622   19.2508  -25.5591 H   0  0  0  0  0  0  0  0  0  0  0  0
 -124.2995   20.2447  -27.0491 H   0  0  0  0  0  0  0  0  0  0  0  0
 -123.2864   18.7613  -27.0491 H   0  0  0  0  0  0  0  0  0  0  0  0
 -123.2029   21.6610  -27.4437 H   0  0  0  0  0  0  0  0  0  0  0  0
 -120.8226   22.1377  -27.7106 H   0  0  0  0  0  0  0  0  0  0  0  0
 -121.9555   23.5414  -27.6385 H   0  0  0  0  0  0  0  0  0  0  0  0
 -122.3962   24.3126  -25.3259 H   0  0  0  0  0  0  0  0  0  0  0  0
 -119.4514   23.0060  -23.5373 H   0  0  0  0  0  0  0  0  0  0  0  0
 -116.4184   23.6008  -21.4877 H   0  0  0  0  0  0  0  0  0  0  0  0
 -117.3071   22.6019  -22.6873 H   0  0  0  0  0  0  0  0  0  0  0  0
 -117.4991   24.3879  -22.6873 H   0  0  0  0  0  0  0  0  0  0  0  0
 -118.6512   21.9763  -19.5090 H   0  0  0  0  0  0  0  0  0  0  0  0
 -119.5995   21.5594  -20.9765 H   0  0  0  0  0  0  0  0  0  0  0  0
 -117.8136   21.3666  -20.9765 H   0  0  0  0  0  0  0  0  0  0  0  0
 -119.8071   24.1264  -18.9651 H   0  0  0  0  0  0  0  0  0  0  0  0
 -119.6989   25.9156  -19.2579 H   0  0  0  0  0  0  0  0  0  0  0  0
 -122.2005   24.3073  -18.6288 H   0  0  0  0  0  0  0  0  0  0  0  0
 -121.0953   24.5055  -16.6106 H   0  0  0  0  0  0  0  0  0  0  0  0
 -120.5571   26.2030  -16.9776 H   0  0  0  0  0  0  0  0  0  0  0  0
 -123.4657   25.3718  -16.5406 H   0  0  0  0  0  0  0  0  0  0  0  0
 -121.6312   25.2745  -14.6541 H   0  0  0  0  0  0  0  0  0  0  0  0
 -124.0949   23.6579  -13.2464 H   0  0  0  0  0  0  0  0  0  0  0  0
 -124.9116   24.0845  -14.7884 H   0  0  0  0  0  0  0  0  0  0  0  0
 -123.1741   23.6289  -14.7884 H   0  0  0  0  0  0  0  0  0  0  0  0
 -125.0220   26.6737  -12.8938 H   0  0  0  0  0  0  0  0  0  0  0  0
 -124.5396   27.4358  -14.4472 H   0  0  0  0  0  0  0  0  0  0  0  0
 -125.6363   26.0132  -14.4472 H   0  0  0  0  0  0  0  0  0  0  0  0
 -121.2553   28.0418  -12.4502 H   0  0  0  0  0  0  0  0  0  0  0  0
 -119.8512   31.4040  -14.8319 H   0  0  0  0  0  0  0  0  0  0  0  0
 -120.3199   30.4470  -16.2627 H   0  0  0  0  0  0  0  0  0  0  0  0
 -124.1720   27.8481  -15.4551 H   0  0  0  0  0  0  0  0  0  0  0  0
 -123.8775   28.3713  -19.9360 H   0  0  0  0  0  0  0  0  0  0  0  0
 -123.5913   26.3945  -23.0385 H   0  0  0  0  0  0  0  0  0  0  0  0
  2  1  1  0
  3  2  1  0
  4  2  1  0
  5  2  1  0
  6  5  1  0
  7  6  1  0
  8  7  2  0
  9  7  1  0
 10  9  1  0
 11 10  2  0
 12 11  1  0
 13 12  1  0
 14 13  1  0
 15 13  1  0
 16 12  2  0
 17 16  1  0
 18 17  1  0
 19 18  1  0
 20 19  1  0
 21 20  1  0
 22 21  1  0
 23 22  1  0
 24 22  1  0
 25 21  1  0
 26 25  1  0
 27 25  2  0
 28 27  1  0
 29 28  2  0
 30 28  1  0
 31 27  1  0
 32 31  2  0
 33 20  1  0
 33 31  1  0
 33 34  1  1
 35 33  1  0
 36 35  1  0
 37 18  1  0
 37 35  2  0
 38 37  1  0
 39 38  2  0
 40 38  1  0
 40 16  1  0
 41 10  1  0
 41 40  2  0
 42 41  1  0
  1 43  1  0
  1 44  1  0
  1 45  1  0
  3 46  1  0
  3 47  1  0
  3 48  1  0
  4 49  1  0
  4 50  1  0
  4 51  1  0
  5 52  1  0
  6 53  1  0
  6 54  1  0
  9 55  1  0
 11 56  1  0
 14 57  1  0
 14 58  1  0
 14 59  1  0
 15 60  1  0
 15 61  1  0
 15 62  1  0
 17 63  1  0
 17 64  1  0
 18 65  1  1
 19 66  1  0
 19 67  1  0
 20 68  1  1
 21 69  1  6
 23 70  1  0
 23 71  1  0
 23 72  1  0
 24 73  1  0
 24 74  1  0
 24 75  1  0
 26 76  1  0
 30 77  1  0
 30 78  1  0
 34 79  1  0
 36 80  1  0
 42 81  1  0
M  END
$$$$
