PDB_DB06603_98
     RDKit          3D

 49 51  0  0  0  0  0  0  0  0999 V2000
  -16.4010   22.4590   -1.0160 O   0  0  0  0  0  0  0  0  0  0  0  0
  -15.8400   23.4360   -1.5500 C   0  0  0  0  0  0  0  0  0  0  0  0
  -16.5600   24.2510   -2.4910 N   0  0  0  0  0  0  0  0  0  0  0  0
  -17.8240   23.9690   -2.8040 O   0  0  0  0  0  0  0  0  0  0  0  0
  -14.3780   23.7720   -1.1930 C   0  0  0  0  0  0  0  0  0  0  0  0
  -13.9900   23.8040    0.1370 C   0  0  0  0  0  0  0  0  0  0  0  0
  -12.6340   24.3880    0.5290 C   0  0  0  0  0  0  0  0  0  0  0  0
  -11.6370   24.5610   -0.4460 C   0  0  0  0  0  0  0  0  0  0  0  0
  -10.4180   25.0860   -0.0950 C   0  0  0  0  0  0  0  0  0  0  0  0
  -12.3870   24.7520    1.8640 C   0  0  0  0  0  0  0  0  0  0  0  0
  -11.1590   25.2800    2.2210 C   0  0  0  0  0  0  0  0  0  0  0  0
  -10.1660   25.4550    1.2500 C   0  0  0  0  0  0  0  0  0  0  0  0
   -8.8170   26.0290    1.6410 C   0  0  0  0  0  0  0  0  0  0  0  0
   -7.7300   25.0600    1.3680 N   0  0  0  0  0  0  0  0  0  0  0  0
   -7.8080   23.9630    2.3420 C   0  0  0  0  0  0  0  0  0  0  0  0
   -8.3920   22.7070    1.6910 C   0  0  0  0  0  0  0  0  0  0  0  0
   -8.3600   21.4730    2.6610 C   0  0  0  0  0  0  0  0  0  0  0  0
   -7.2840   20.4700    2.7510 C   0  0  0  0  0  0  0  0  0  0  0  0
   -7.6800   19.5810    3.7340 C   0  0  0  0  0  0  0  0  0  0  0  0
   -8.9250   19.9760    4.2450 N   0  0  0  0  0  0  0  0  0  0  0  0
   -9.3360   21.0810    3.6290 C   0  0  0  0  0  0  0  0  0  0  0  0
  -10.6330   21.8030    3.9100 C   0  0  0  0  0  0  0  0  0  0  0  0
   -6.8240   18.4580    4.0680 C   0  0  0  0  0  0  0  0  0  0  0  0
   -5.5970   18.2820    3.3920 C   0  0  0  0  0  0  0  0  0  0  0  0
   -5.2040   19.1900    2.4000 C   0  0  0  0  0  0  0  0  0  0  0  0
   -6.0460   20.2930    2.0720 C   0  0  0  0  0  0  0  0  0  0  0  0
  -16.0944   25.0598   -2.9268 H   0  0  0  0  0  0  0  0  0  0  0  0
  -18.3511   23.8514   -1.9743 H   0  0  0  0  0  0  0  0  0  0  0  0
  -13.6484   23.9847   -1.9882 H   0  0  0  0  0  0  0  0  0  0  0  0
  -14.6609   23.4074    0.9133 H   0  0  0  0  0  0  0  0  0  0  0  0
  -11.8332   24.2759   -1.4901 H   0  0  0  0  0  0  0  0  0  0  0  0
   -9.6368   25.2203   -0.8577 H   0  0  0  0  0  0  0  0  0  0  0  0
  -13.1699   24.6171    2.6248 H   0  0  0  0  0  0  0  0  0  0  0  0
  -10.9633   25.5618    3.2661 H   0  0  0  0  0  0  0  0  0  0  0  0
   -8.6349   26.9467    1.0625 H   0  0  0  0  0  0  0  0  0  0  0  0
   -8.8283   26.2495    2.7186 H   0  0  0  0  0  0  0  0  0  0  0  0
   -7.8350   24.6833    0.4151 H   0  0  0  0  0  0  0  0  0  0  0  0
   -6.7983   23.7399    2.7172 H   0  0  0  0  0  0  0  0  0  0  0  0
   -8.4621   24.2701    3.1713 H   0  0  0  0  0  0  0  0  0  0  0  0
   -9.4352   22.9073    1.4054 H   0  0  0  0  0  0  0  0  0  0  0  0
   -7.7784   22.4636    0.8111 H   0  0  0  0  0  0  0  0  0  0  0  0
   -9.4436   19.4839    4.9865 H   0  0  0  0  0  0  0  0  0  0  0  0
  -10.7792   21.8844    4.9972 H   0  0  0  0  0  0  0  0  0  0  0  0
  -10.5952   22.8099    3.4687 H   0  0  0  0  0  0  0  0  0  0  0  0
  -11.4689   21.2404    3.4687 H   0  0  0  0  0  0  0  0  0  0  0  0
   -7.1307   17.7445    4.8470 H   0  0  0  0  0  0  0  0  0  0  0  0
   -4.9483   17.4303    3.6447 H   0  0  0  0  0  0  0  0  0  0  0  0
   -4.2473   19.0522    1.8750 H   0  0  0  0  0  0  0  0  0  0  0  0
   -5.7385   21.0072    1.2940 H   0  0  0  0  0  0  0  0  0  0  0  0
  1  2  2  0
  2  3  1  0
  4  3  1  0
  2  5  1  0
  5  6  2  0
  6  7  1  0
  7  8  2  0
  8  9  1  0
  7 10  1  0
 10 11  2  0
  9 12  2  0
 11 12  1  0
 12 13  1  0
 13 14  1  0
 14 15  1  0
 15 16  1  0
 16 17  1  0
 17 18  1  0
 18 19  2  0
 19 20  1  0
 17 21  2  0
 20 21  1  0
 21 22  1  0
 19 23  1  0
 23 24  2  0
 24 25  1  0
 18 26  1  0
 25 26  2  0
  3 27  1  0
  4 28  1  0
  5 29  1  0
  6 30  1  0
  8 31  1  0
  9 32  1  0
 10 33  1  0
 11 34  1  0
 13 35  1  0
 13 36  1  0
 14 37  1  0
 15 38  1  0
 15 39  1  0
 16 40  1  0
 16 41  1  0
 20 42  1  0
 22 43  1  0
 22 44  1  0
 22 45  1  0
 23 46  1  0
 24 47  1  0
 25 48  1  0
 26 49  1  0
M  END
$$$$
