PDB_DB01050_98
     RDKit          3D

 33 33  0  0  0  0  0  0  0  0999 V2000
   67.8860   20.5510  192.8670 C   0  0  0  0  0  0  0  0  0  0  0  0
   68.4730   23.2850  186.8590 C   0  0  0  0  0  0  0  0  0  0  0  0
   68.6080   24.7810  187.1740 C   0  0  0  0  0  0  0  0  0  0  0  0
   68.0590   25.6130  186.0180 C   0  0  0  0  0  0  0  0  0  0  0  0
   70.0540   25.1580  187.4230 C   0  0  0  0  0  0  0  0  0  0  0  0
   67.8520   19.7210  191.5940 C   0  0  1  0  0  0  0  0  0  0  0  0
   66.6010   18.8480  191.5410 C   0  0  0  0  0  0  0  0  0  0  0  0
   67.9910   20.6630  190.3750 C   0  0  0  0  0  0  0  0  0  0  0  0
   69.2290   20.7770  189.7060 C   0  0  0  0  0  0  0  0  0  0  0  0
   69.3800   21.6200  188.5800 C   0  0  0  0  0  0  0  0  0  0  0  0
   68.2960   22.3850  188.0740 C   0  0  0  0  0  0  0  0  0  0  0  0
   67.0590   22.2730  188.7420 C   0  0  0  0  0  0  0  0  0  0  0  0
   66.9070   21.4290  189.8700 C   0  0  0  0  0  0  0  0  0  0  0  0
   69.0560   20.6220  193.4310 O   0  0  0  0  0  0  0  0  0  0  0  0
   66.9010   21.0950  193.3460 O   0  0  0  0  0  0  0  0  0  0  0  0
   67.5985   23.1515  186.2052 H   0  0  0  0  0  0  0  0  0  0  0  0
   69.4204   22.9833  186.3884 H   0  0  0  0  0  0  0  0  0  0  0  0
   68.0288   24.9876  188.0861 H   0  0  0  0  0  0  0  0  0  0  0  0
   67.4945   26.4684  186.4176 H   0  0  0  0  0  0  0  0  0  0  0  0
   68.8931   25.9797  185.4017 H   0  0  0  0  0  0  0  0  0  0  0  0
   67.3938   24.9904  185.4017 H   0  0  0  0  0  0  0  0  0  0  0  0
   70.2390   25.2062  188.5063 H   0  0  0  0  0  0  0  0  0  0  0  0
   70.7130   24.4017  186.9718 H   0  0  0  0  0  0  0  0  0  0  0  0
   70.2599   26.1398  186.9718 H   0  0  0  0  0  0  0  0  0  0  0  0
   68.7007   19.0214  191.5764 H   0  0  0  0  0  0  0  0  0  0  0  0
   66.2710   18.6177  192.5647 H   0  0  0  0  0  0  0  0  0  0  0  0
   65.8013   19.3851  191.0100 H   0  0  0  0  0  0  0  0  0  0  0  0
   66.8292   17.9121  191.0100 H   0  0  0  0  0  0  0  0  0  0  0  0
   70.0926   20.1993  190.0672 H   0  0  0  0  0  0  0  0  0  0  0  0
   70.3601   21.6844  188.0848 H   0  0  0  0  0  0  0  0  0  0  0  0
   66.1961   22.8516  188.3806 H   0  0  0  0  0  0  0  0  0  0  0  0
   65.9271   21.3657  190.3658 H   0  0  0  0  0  0  0  0  0  0  0  0
   69.1725   21.1418  194.2654 H   0  0  0  0  0  0  0  0  0  0  0  0
  2  3  1  0
  3  4  1  0
  3  5  1  0
  1  6  1  0
  6  7  1  0
  6  8  1  0
  8  9  2  0
  9 10  1  0
  2 11  1  0
 10 11  2  0
 11 12  1  0
  8 13  1  0
 12 13  2  0
  1 14  1  0
  1 15  2  0
  2 16  1  0
  2 17  1  0
  3 18  1  0
  4 19  1  0
  4 20  1  0
  4 21  1  0
  5 22  1  0
  5 23  1  0
  5 24  1  0
  6 25  1  1
  7 26  1  0
  7 27  1  0
  7 28  1  0
  9 29  1  0
 10 30  1  0
 12 31  1  0
 13 32  1  0
 14 33  1  0
M  END
$$$$
