PDB_DB00558_93
     RDKit          3D

 43 43  0  0  0  0  0  0  0  0999 V2000
   17.8980   17.3050   45.1330 C   0  0  0  0  0  0  0  0  0  0  0  0
   18.6970   18.1680   44.6840 O   0  0  0  0  0  0  0  0  0  0  0  0
   17.3570   16.4520   44.3880 O   0  0  0  0  0  0  0  0  0  0  0  0
   17.5660   17.2670   46.5670 C   0  0  0  0  0  0  0  0  0  0  0  0
   16.3210   17.5540   47.0040 C   0  0  0  0  0  0  0  0  0  0  0  0
   16.0250   17.2980   48.4760 C   0  0  1  0  0  0  0  0  0  0  0  0
   17.1450   17.9030   49.3400 C   0  0  1  0  0  0  0  0  0  0  0  0
   17.3240   17.0440   50.5070 N   0  0  0  0  0  0  0  0  0  0  0  0
   17.1780   17.5040   51.7460 C   0  0  0  0  0  0  0  0  0  0  0  0
   16.8560   18.6430   51.9950 O   0  0  0  0  0  0  0  0  0  0  0  0
   17.4250   16.5320   52.8460 C   0  0  0  0  0  0  0  0  0  0  0  0
   18.5440   17.8280   48.6800 C   0  0  1  0  0  0  0  0  0  0  0  0
   18.5690   16.9150   47.5750 O   0  0  0  0  0  0  0  0  0  0  0  0
   19.1290   19.1660   48.2390 C   0  0  0  0  0  0  0  0  0  0  0  0
   18.5110   20.2370   48.3210 O   0  0  0  0  0  0  0  0  0  0  0  0
   20.3770   19.1430   47.7410 C   0  0  0  0  0  0  0  0  0  0  0  0
   21.0290   17.9870   47.6580 O   0  0  0  0  0  0  0  0  0  0  0  0
   21.0770   20.4000   47.2850 C   0  0  0  0  0  0  0  0  0  0  0  0
   22.0780   20.6850   48.2780 O   0  0  0  0  0  0  0  0  0  0  0  0
   14.7450   17.8270   48.9710 N   0  0  0  0  0  0  0  0  0  0  0  0
   13.5630   17.7510   48.3430 C   0  0  0  0  0  0  0  0  0  0  0  0
   12.4900   18.2630   48.9240 N   0  0  0  0  0  0  0  0  0  0  0  0
   13.4170   17.1860   47.1490 N   0  0  0  0  0  0  0  0  0  0  0  0
   19.1081   18.8281   45.2966 H   0  0  0  0  0  0  0  0  0  0  0  0
   15.5535   17.9555   46.3260 H   0  0  0  0  0  0  0  0  0  0  0  0
   15.9631   16.2027   48.5572 H   0  0  0  0  0  0  0  0  0  0  0  0
   16.8439   18.9437   49.5304 H   0  0  0  0  0  0  0  0  0  0  0  0
   17.5703   16.0538   50.3665 H   0  0  0  0  0  0  0  0  0  0  0  0
   17.2971   17.0354   53.8157 H   0  0  0  0  0  0  0  0  0  0  0  0
   16.7097   15.7000   52.7676 H   0  0  0  0  0  0  0  0  0  0  0  0
   18.4507   16.1424   52.7676 H   0  0  0  0  0  0  0  0  0  0  0  0
   19.1876   17.4582   49.4918 H   0  0  0  0  0  0  0  0  0  0  0  0
   18.7242   19.0098   47.2282 H   0  0  0  0  0  0  0  0  0  0  0  0
   18.3773   20.4687   49.2742 H   0  0  0  0  0  0  0  0  0  0  0  0
   20.7830   19.2995   48.7513 H   0  0  0  0  0  0  0  0  0  0  0  0
   21.2194   17.6494   48.5690 H   0  0  0  0  0  0  0  0  0  0  0  0
   21.5480   20.2396   46.3039 H   0  0  0  0  0  0  0  0  0  0  0  0
   20.3700   21.2358   47.1773 H   0  0  0  0  0  0  0  0  0  0  0  0
   21.6879   20.5739   49.1811 H   0  0  0  0  0  0  0  0  0  0  0  0
   11.5754   18.2117   48.4530 H   0  0  0  0  0  0  0  0  0  0  0  0
   12.5694   18.7128   49.8472 H   0  0  0  0  0  0  0  0  0  0  0  0
   12.4879   17.1514   46.7058 H   0  0  0  0  0  0  0  0  0  0  0  0
   14.2330   16.7827   46.6668 H   0  0  0  0  0  0  0  0  0  0  0  0
  1  2  1  0
  1  3  2  0
  1  4  1  0
  4  5  2  0
  5  6  1  0
  6  7  1  0
  7  8  1  0
  8  9  1  0
  9 10  2  0
  9 11  1  0
  7 12  1  0
  4 13  1  0
 12 13  1  0
 12 14  1  0
 14 15  1  0
 14 16  1  0
 16 17  1  0
 16 18  1  0
 18 19  1  0
  6 20  1  0
 20 21  2  3
 21 22  1  0
 21 23  1  0
  2 24  1  0
  5 25  1  0
  6 26  1  6
  7 27  1  1
  8 28  1  0
 11 29  1  0
 11 30  1  0
 11 31  1  0
 12 32  1  1
 14 33  1  0
 15 34  1  0
 16 35  1  0
 17 36  1  0
 18 37  1  0
 18 38  1  0
 19 39  1  0
 22 40  1  0
 22 41  1  0
 23 42  1  0
 23 43  1  0
M  END
$$$$
