PDB_DB01024_96
     RDKit          3D

 43 44  0  0  0  0  0  0  0  0999 V2000
   59.4460   55.0320   48.5890 C   0  0  0  0  0  0  0  0  0  0  0  0
   58.5480   50.2710   51.9410 C   0  0  0  0  0  0  0  0  0  0  0  0
   57.9700   49.1210   52.4340 C   0  0  0  0  0  0  0  0  0  0  0  0
   58.5700   47.7970   51.9280 C   0  0  0  0  0  0  0  0  0  0  0  0
   58.0230   47.1530   50.7010 C   0  0  0  0  0  0  0  0  0  0  0  0
   58.2550   47.8170   49.3750 C   0  0  0  0  0  0  0  0  0  0  0  0
   54.9010   53.7740   48.8300 C   0  0  0  0  0  0  0  0  0  0  0  0
   54.5130   52.3370   52.0060 C   0  0  0  0  0  0  0  0  0  0  0  0
   56.7320   49.0870   53.2970 C   0  0  0  0  0  0  0  0  0  0  0  0
   57.4890   55.3500   47.6980 C   0  0  0  0  0  0  0  0  0  0  0  0
   57.3660   54.3170   48.8930 C   0  0  0  0  0  0  0  0  0  0  0  0
   56.3020   53.5890   49.4560 C   0  0  0  0  0  0  0  0  0  0  0  0
   56.5310   52.7490   50.5690 C   0  0  0  0  0  0  0  0  0  0  0  0
   57.8480   52.5940   51.0640 C   0  0  0  0  0  0  0  0  0  0  0  0
   58.8970   53.3100   50.4630 C   0  0  0  0  0  0  0  0  0  0  0  0
   58.6520   54.1990   49.4000 C   0  0  0  0  0  0  0  0  0  0  0  0
   58.1630   51.6840   52.3080 C   0  0  0  0  0  0  0  0  0  0  0  0
   60.6590   55.1780   48.7620 O   0  0  0  0  0  0  0  0  0  0  0  0
   58.8960   55.4520   47.4600 O   0  0  0  0  0  0  0  0  0  0  0  0
   55.5040   51.9230   51.0660 O   0  0  0  0  0  0  0  0  0  0  0  0
   60.1920   53.1590   50.9030 O   0  0  0  0  0  0  0  0  0  0  0  0
   57.2750   47.9930   48.5520 O   0  0  0  0  0  0  0  0  0  0  0  0
   59.4160   48.2050   49.0510 O   0  0  0  0  0  0  0  0  0  0  0  0
   59.3642   50.1481   51.2139 H   0  0  0  0  0  0  0  0  0  0  0  0
   59.6377   47.9834   51.7400 H   0  0  0  0  0  0  0  0  0  0  0  0
   58.3145   47.0825   52.7244 H   0  0  0  0  0  0  0  0  0  0  0  0
   58.4620   46.1462   50.6404 H   0  0  0  0  0  0  0  0  0  0  0  0
   56.9325   47.2011   50.8371 H   0  0  0  0  0  0  0  0  0  0  0  0
   54.1522   53.8729   49.6297 H   0  0  0  0  0  0  0  0  0  0  0  0
   54.8944   54.6808   48.2074 H   0  0  0  0  0  0  0  0  0  0  0  0
   54.6593   52.9000   48.2074 H   0  0  0  0  0  0  0  0  0  0  0  0
   54.8887   52.1801   53.0279 H   0  0  0  0  0  0  0  0  0  0  0  0
   54.2895   53.4037   51.8573 H   0  0  0  0  0  0  0  0  0  0  0  0
   53.5971   51.7463   51.8573 H   0  0  0  0  0  0  0  0  0  0  0  0
   57.0240   49.0950   54.3575 H   0  0  0  0  0  0  0  0  0  0  0  0
   56.1103   49.9684   53.0812 H   0  0  0  0  0  0  0  0  0  0  0  0
   56.1596   48.1728   53.0812 H   0  0  0  0  0  0  0  0  0  0  0  0
   56.9691   54.9750   46.8041 H   0  0  0  0  0  0  0  0  0  0  0  0
   57.0321   56.3221   47.9351 H   0  0  0  0  0  0  0  0  0  0  0  0
   57.2681   51.6459   52.9466 H   0  0  0  0  0  0  0  0  0  0  0  0
   59.0262   52.1300   52.8237 H   0  0  0  0  0  0  0  0  0  0  0  0
   60.9236   53.6683   50.4725 H   0  0  0  0  0  0  0  0  0  0  0  0
   57.4345   48.4316   47.6789 H   0  0  0  0  0  0  0  0  0  0  0  0
  2  3  2  0
  3  4  1  0
  4  5  1  0
  5  6  1  0
  3  9  1  0
 10 11  1  0
  7 12  1  0
 11 12  1  0
 12 13  2  0
 13 14  1  0
 14 15  2  0
  1 16  1  0
 11 16  2  0
 15 16  1  0
  2 17  1  0
 14 17  1  0
  1 18  2  0
  1 19  1  0
 10 19  1  0
  8 20  1  0
 13 20  1  0
 15 21  1  0
  6 22  1  0
  6 23  2  0
  2 24  1  0
  4 25  1  0
  4 26  1  0
  5 27  1  0
  5 28  1  0
  7 29  1  0
  7 30  1  0
  7 31  1  0
  8 32  1  0
  8 33  1  0
  8 34  1  0
  9 35  1  0
  9 36  1  0
  9 37  1  0
 10 38  1  0
 10 39  1  0
 17 40  1  0
 17 41  1  0
 21 42  1  0
 22 43  1  0
M  END
$$$$
