PDB_DB01092_97
     RDKit          3D

 85 90  0  0  0  0  0  0  0  0999 V2000
  -26.2080   19.1480  -73.3700 C   0  0  2  0  0  0  0  0  0  0  0  0
  -27.6590   18.6970  -73.5190 C   0  0  0  0  0  0  0  0  0  0  0  0
  -28.2750   19.4910  -74.6610 C   0  0  1  0  0  0  0  0  0  0  0  0
  -28.3170   20.9580  -74.2760 C   0  0  0  0  0  0  0  0  0  0  0  0
  -26.9080   21.4790  -73.9790 C   0  0  1  0  0  0  0  0  0  0  0  0
  -27.0330   22.9500  -73.6020 C   0  0  0  0  0  0  0  0  0  0  0  0
  -27.7220   23.0680  -72.2550 C   0  0  0  0  0  0  0  0  0  0  0  0
  -26.8640   22.3450  -71.2150 C   0  0  2  0  0  0  0  0  0  0  0  0
  -26.6860   20.8320  -71.4930 C   0  0  1  0  0  0  0  0  0  0  0  0
  -26.1260   20.6280  -72.9370 C   0  0  1  0  0  0  0  0  0  0  0  0
  -25.9010   20.1660  -70.3290 C   0  0  1  0  0  0  0  0  0  0  0  0
  -26.5250   20.4900  -68.9770 C   0  0  0  0  0  0  0  0  0  0  0  0
  -26.5300   21.9820  -68.6920 C   0  0  1  0  0  0  0  0  0  0  0  0
  -27.2590   22.7640  -69.7950 C   0  0  2  0  0  0  0  0  0  0  0  0
  -28.7440   22.6400  -69.4770 C   0  0  0  0  0  0  0  0  0  0  0  0
  -28.8290   22.5490  -67.9630 C   0  0  0  0  0  0  0  0  0  0  0  0
  -27.4290   22.1940  -67.4670 C   0  0  2  0  0  0  0  0  0  0  0  0
  -25.0730   22.4200  -68.5110 C   0  0  0  0  0  0  0  0  0  0  0  0
  -24.6600   21.1140  -72.9430 C   0  0  0  0  0  0  0  0  0  0  0  0
  -26.9430   23.2340  -66.4930 C   0  0  0  0  0  0  0  0  0  0  0  0
  -26.9240   24.7380  -66.7480 C   0  0  0  0  0  0  0  0  0  0  0  0
  -26.4270   22.8880  -65.3110 C   0  0  0  0  0  0  0  0  0  0  0  0
  -26.0710   24.1480  -64.6570 C   0  0  0  0  0  0  0  0  0  0  0  0
  -27.8310   19.5410  -77.1280 C   0  0  2  0  0  0  0  0  0  0  0  0
  -27.2790   18.4320  -78.0280 C   0  0  1  0  0  0  0  0  0  0  0  0
  -28.0010   17.1110  -77.7410 C   0  0  1  0  0  0  0  0  0  0  0  0
  -29.5170   17.1830  -77.8930 C   0  0  2  0  0  0  0  0  0  0  0  0
  -30.0720   18.3960  -77.1760 C   0  0  2  0  0  0  0  0  0  0  0  0
  -31.4380   18.5280  -77.8050 C   0  0  0  0  0  0  0  0  0  0  0  0
  -25.5160   18.9150  -74.6140 O   0  0  0  0  0  0  0  0  0  0  0  0
  -27.4030   19.2890  -75.7800 O   0  0  0  0  0  0  0  0  0  0  0  0
  -26.1540   21.4260  -75.1910 O   0  0  0  0  0  0  0  0  0  0  0  0
  -25.7840   18.7300  -70.3790 O   0  0  0  0  0  0  0  0  0  0  0  0
  -26.9800   24.1600  -69.7090 O   0  0  0  0  0  0  0  0  0  0  0  0
  -23.7170   20.0300  -72.9430 O   0  0  0  0  0  0  0  0  0  0  0  0
  -26.2700   25.2430  -65.5830 O   0  0  0  0  0  0  0  0  0  0  0  0
  -25.6610   24.2860  -63.5170 O   0  0  0  0  0  0  0  0  0  0  0  0
  -27.4120   18.8080  -79.4050 O   0  0  0  0  0  0  0  0  0  0  0  0
  -27.4080   16.0750  -78.5530 O   0  0  0  0  0  0  0  0  0  0  0  0
  -30.0960   15.9590  -77.4060 O   0  0  0  0  0  0  0  0  0  0  0  0
  -29.2700   19.6160  -77.2820 O   0  0  0  0  0  0  0  0  0  0  0  0
  -25.7205   18.5625  -72.5766 H   0  0  0  0  0  0  0  0  0  0  0  0
  -27.6955   17.6217  -73.7479 H   0  0  0  0  0  0  0  0  0  0  0  0
  -28.2143   18.8707  -72.5855 H   0  0  0  0  0  0  0  0  0  0  0  0
  -29.3023   19.1742  -74.8940 H   0  0  0  0  0  0  0  0  0  0  0  0
  -28.7489   21.5370  -75.1056 H   0  0  0  0  0  0  0  0  0  0  0  0
  -28.9336   21.0694  -73.3719 H   0  0  0  0  0  0  0  0  0  0  0  0
  -26.0311   23.4001  -73.5425 H   0  0  0  0  0  0  0  0  0  0  0  0
  -27.6254   23.4760  -74.3652 H   0  0  0  0  0  0  0  0  0  0  0  0
  -27.8249   24.1283  -71.9809 H   0  0  0  0  0  0  0  0  0  0  0  0
  -28.7247   22.6179  -72.3001 H   0  0  0  0  0  0  0  0  0  0  0  0
  -25.8232   22.6867  -71.3147 H   0  0  0  0  0  0  0  0  0  0  0  0
  -27.6465   20.2960  -71.4984 H   0  0  0  0  0  0  0  0  0  0  0  0
  -24.8955   20.5941  -70.4538 H   0  0  0  0  0  0  0  0  0  0  0  0
  -27.5623   20.1239  -68.9684 H   0  0  0  0  0  0  0  0  0  0  0  0
  -25.9216   19.9989  -68.1994 H   0  0  0  0  0  0  0  0  0  0  0  0
  -29.2899   23.5232  -69.8402 H   0  0  0  0  0  0  0  0  0  0  0  0
  -29.1936   21.7623  -69.9643 H   0  0  0  0  0  0  0  0  0  0  0  0
  -29.1471   23.5142  -67.5422 H   0  0  0  0  0  0  0  0  0  0  0  0
  -29.5635   21.7915  -67.6521 H   0  0  0  0  0  0  0  0  0  0  0  0
  -27.4194   21.2536  -66.8965 H   0  0  0  0  0  0  0  0  0  0  0  0
  -24.8416   22.4895  -67.4379 H   0  0  0  0  0  0  0  0  0  0  0  0
  -24.4071   21.6823  -68.9826 H   0  0  0  0  0  0  0  0  0  0  0  0
  -24.9242   23.4026  -68.9826 H   0  0  0  0  0  0  0  0  0  0  0  0
  -24.4951   21.7240  -73.8434 H   0  0  0  0  0  0  0  0  0  0  0  0
  -24.4986   21.6951  -72.0231 H   0  0  0  0  0  0  0  0  0  0  0  0
  -26.3558   24.9793  -67.6585 H   0  0  0  0  0  0  0  0  0  0  0  0
  -27.9239   25.1672  -66.9092 H   0  0  0  0  0  0  0  0  0  0  0  0
  -26.2970   21.8708  -64.9129 H   0  0  0  0  0  0  0  0  0  0  0  0
  -27.4410   20.5294  -77.4127 H   0  0  0  0  0  0  0  0  0  0  0  0
  -26.2098   18.2879  -77.8135 H   0  0  0  0  0  0  0  0  0  0  0  0
  -27.8606   16.8710  -76.6767 H   0  0  0  0  0  0  0  0  0  0  0  0
  -29.7793   17.2959  -78.9553 H   0  0  0  0  0  0  0  0  0  0  0  0
  -30.0828   18.2600  -76.0845 H   0  0  0  0  0  0  0  0  0  0  0  0
  -32.1999   18.6016  -77.0150 H   0  0  0  0  0  0  0  0  0  0  0  0
  -31.4683   19.4333  -78.4292 H   0  0  0  0  0  0  0  0  0  0  0  0
  -31.6411   17.6453  -78.4292 H   0  0  0  0  0  0  0  0  0  0  0  0
  -24.5948   18.6048  -74.4261 H   0  0  0  0  0  0  0  0  0  0  0  0
  -25.1898   21.3582  -74.9771 H   0  0  0  0  0  0  0  0  0  0  0  0
  -25.7546   18.3690  -69.4576 H   0  0  0  0  0  0  0  0  0  0  0  0
  -26.9265   24.4278  -68.7574 H   0  0  0  0  0  0  0  0  0  0  0  0
  -23.5004   19.7810  -72.0096 H   0  0  0  0  0  0  0  0  0  0  0  0
  -27.7416   19.7398  -79.4623 H   0  0  0  0  0  0  0  0  0  0  0  0
  -27.0117   15.3826  -77.9668 H   0  0  0  0  0  0  0  0  0  0  0  0
  -30.0937   15.9639  -76.4160 H   0  0  0  0  0  0  0  0  0  0  0  0
  1  2  1  0
  2  3  1  0
  3  4  1  0
  4  5  1  0
  5  6  1  0
  6  7  1  0
  7  8  1  0
  8  9  1  0
  1 10  1  0
  5 10  1  0
  9 10  1  0
  9 11  1  0
 11 12  1  0
 12 13  1  0
  8 14  1  0
 13 14  1  0
 14 15  1  0
 15 16  1  0
 13 17  1  0
 16 17  1  0
 13 18  1  1
 10 19  1  1
 17 20  1  0
 20 21  1  0
 20 22  2  0
 22 23  1  0
 24 25  1  0
 25 26  1  0
 26 27  1  0
 27 28  1  0
 28 29  1  0
  1 30  1  0
  3 31  1  0
 24 31  1  0
  5 32  1  6
 11 33  1  0
 14 34  1  1
 19 35  1  0
 21 36  1  0
 23 36  1  0
 23 37  2  0
 25 38  1  0
 26 39  1  0
 27 40  1  0
 24 41  1  0
 28 41  1  0
  1 42  1  1
  2 43  1  0
  2 44  1  0
  3 45  1  6
  4 46  1  0
  4 47  1  0
  6 48  1  0
  6 49  1  0
  7 50  1  0
  7 51  1  0
  8 52  1  6
  9 53  1  6
 11 54  1  1
 12 55  1  0
 12 56  1  0
 15 57  1  0
 15 58  1  0
 16 59  1  0
 16 60  1  0
 17 61  1  1
 18 62  1  0
 18 63  1  0
 18 64  1  0
 19 65  1  0
 19 66  1  0
 21 67  1  0
 21 68  1  0
 22 69  1  0
 24 70  1  6
 25 71  1  1
 26 72  1  1
 27 73  1  6
 28 74  1  1
 29 75  1  0
 29 76  1  0
 29 77  1  0
 30 78  1  0
 32 79  1  0
 33 80  1  0
 34 81  1  0
 35 82  1  0
 38 83  1  0
 39 84  1  0
 40 85  1  0
M  END
$$$$
