PDB_DB00421_93
     RDKit          3D

 61 65  0  0  0  0  0  0  0  0999 V2000
   39.1780   19.9190   30.6900 C   0  0  0  0  0  0  0  0  0  0  0  0
   40.2350   23.8000   31.5920 C   0  0  0  0  0  0  0  0  0  0  0  0
   40.1960   22.3350   30.6840 C   0  0  1  0  0  0  0  0  0  0  0  0
   44.0330   23.6890   32.7220 C   0  0  1  0  0  0  0  0  0  0  0  0
   41.0390   21.2560   31.5750 C   0  0  1  0  0  0  0  0  0  0  0  0
   44.0980   25.0810   33.6290 C   0  0  0  0  0  0  0  0  0  0  0  0
   41.5700   24.3450   31.8280 C   0  0  0  0  0  0  0  0  0  0  0  0
   40.5700   19.7420   31.1670 C   0  0  0  0  0  0  0  0  0  0  0  0
   38.7730   21.4370   30.6730 C   0  0  2  0  0  0  0  0  0  0  0  0
   40.7720   22.5370   29.2410 C   0  0  0  0  0  0  0  0  0  0  0  0
   44.7180   23.9190   31.3110 C   0  0  0  0  0  0  0  0  0  0  0  0
   45.5530   25.4140   34.2390 C   0  0  0  0  0  0  0  0  0  0  0  0
   37.7030   21.7160   31.7860 C   0  0  0  0  0  0  0  0  0  0  0  0
   36.7050   22.6850   31.0730 C   0  0  0  0  0  0  0  0  0  0  0  0
   37.0310   22.4840   29.6510 C   0  0  0  0  0  0  0  0  0  0  0  0
   43.1630   18.7420   35.0570 C   0  0  0  0  0  0  0  0  0  0  0  0
   42.6420   18.1320   36.3500 C   0  0  0  0  0  0  0  0  0  0  0  0
   46.1850   24.0890   34.9720 C   0  0  0  0  0  0  0  0  0  0  0  0
   45.8160   22.6720   34.5100 C   0  0  0  0  0  0  0  0  0  0  0  0
   44.9360   22.4580   33.4190 C   0  0  0  0  0  0  0  0  0  0  0  0
   44.7270   20.9240   32.8980 C   0  0  0  0  0  0  0  0  0  0  0  0
   43.3330   20.5550   32.6590 C   0  0  2  0  0  0  0  0  0  0  0  0
   42.4940   21.6370   31.8080 C   0  0  2  0  0  0  0  0  0  0  0  0
   42.5730   23.2070   32.5360 C   0  0  1  0  0  0  0  0  0  0  0  0
   36.5510   23.0890   28.7480 O   0  0  0  0  0  0  0  0  0  0  0  0
   37.9800   21.5080   29.5040 O   0  0  0  0  0  0  0  0  0  0  0  0
   44.1210   18.2070   34.5130 O   0  0  0  0  0  0  0  0  0  0  0  0
   46.9590   24.2330   35.9560 O   0  0  0  0  0  0  0  0  0  0  0  0
   42.4320   20.2710   34.3410 S   0  0  0  0  0  0  0  0  0  0  0  0
   39.0934   19.5135   29.6710 H   0  0  0  0  0  0  0  0  0  0  0  0
   38.5037   19.3858   31.3763 H   0  0  0  0  0  0  0  0  0  0  0  0
   39.6497   24.5551   31.0467 H   0  0  0  0  0  0  0  0  0  0  0  0
   39.8220   23.5588   32.5826 H   0  0  0  0  0  0  0  0  0  0  0  0
   40.7833   21.2797   32.6446 H   0  0  0  0  0  0  0  0  0  0  0  0
   43.7927   25.9224   32.9895 H   0  0  0  0  0  0  0  0  0  0  0  0
   43.4268   24.9272   34.4868 H   0  0  0  0  0  0  0  0  0  0  0  0
   42.0047   24.6579   30.8672 H   0  0  0  0  0  0  0  0  0  0  0  0
   41.4800   25.2025   32.5111 H   0  0  0  0  0  0  0  0  0  0  0  0
   40.6030   19.0731   32.0396 H   0  0  0  0  0  0  0  0  0  0  0  0
   41.2237   19.2838   30.4102 H   0  0  0  0  0  0  0  0  0  0  0  0
   41.8081   22.9004   29.3073 H   0  0  0  0  0  0  0  0  0  0  0  0
   40.7534   21.5787   28.7013 H   0  0  0  0  0  0  0  0  0  0  0  0
   40.1589   23.2738   28.7013 H   0  0  0  0  0  0  0  0  0  0  0  0
   45.7515   24.2660   31.4574 H   0  0  0  0  0  0  0  0  0  0  0  0
   44.7248   22.9739   30.7483 H   0  0  0  0  0  0  0  0  0  0  0  0
   44.1530   24.6767   30.7483 H   0  0  0  0  0  0  0  0  0  0  0  0
   46.2223   25.7320   33.4261 H   0  0  0  0  0  0  0  0  0  0  0  0
   45.4517   26.2181   34.9828 H   0  0  0  0  0  0  0  0  0  0  0  0
   37.2010   20.7871   32.0946 H   0  0  0  0  0  0  0  0  0  0  0  0
   38.1329   22.1350   32.7077 H   0  0  0  0  0  0  0  0  0  0  0  0
   35.6617   22.4085   31.2851 H   0  0  0  0  0  0  0  0  0  0  0  0
   36.7970   23.7307   31.4016 H   0  0  0  0  0  0  0  0  0  0  0  0
   43.0888   18.6551   37.2083 H   0  0  0  0  0  0  0  0  0  0  0  0
   41.5473   18.2333   36.3882 H   0  0  0  0  0  0  0  0  0  0  0  0
   42.9132   17.0666   36.3882 H   0  0  0  0  0  0  0  0  0  0  0  0
   46.2429   21.8054   35.0360 H   0  0  0  0  0  0  0  0  0  0  0  0
   45.2822   20.8012   31.9564 H   0  0  0  0  0  0  0  0  0  0  0  0
   45.0942   20.2661   33.6995 H   0  0  0  0  0  0  0  0  0  0  0  0
   43.3730   19.6349   32.0575 H   0  0  0  0  0  0  0  0  0  0  0  0
   42.9783   21.6559   30.8205 H   0  0  0  0  0  0  0  0  0  0  0  0
   42.1563   23.0885   33.5471 H   0  0  0  0  0  0  0  0  0  0  0  0
  2  3  1  0
  3  5  1  0
  4  6  1  0
  2  7  1  0
  1  8  1  0
  5  8  1  0
  1  9  1  0
  3  9  1  0
  3 10  1  6
  4 11  1  6
  6 12  1  0
  9 13  1  0
 13 14  1  0
 14 15  1  0
 16 17  1  0
 12 18  1  0
 18 19  1  0
  4 20  1  0
 19 20  2  0
 20 21  1  0
 21 22  1  0
  5 23  1  0
 22 23  1  0
  4 24  1  0
  7 24  1  0
 23 24  1  0
 15 25  2  0
  9 26  1  6
 15 26  1  0
 16 27  2  0
 18 28  2  0
 16 29  1  0
 22 29  1  0
  1 30  1  0
  1 31  1  0
  2 32  1  0
  2 33  1  0
  5 34  1  1
  6 35  1  0
  6 36  1  0
  7 37  1  0
  7 38  1  0
  8 39  1  0
  8 40  1  0
 10 41  1  0
 10 42  1  0
 10 43  1  0
 11 44  1  0
 11 45  1  0
 11 46  1  0
 12 47  1  0
 12 48  1  0
 13 49  1  0
 13 50  1  0
 14 51  1  0
 14 52  1  0
 17 53  1  0
 17 54  1  0
 17 55  1  0
 19 56  1  0
 21 57  1  0
 21 58  1  0
 22 59  1  6
 23 60  1  6
 24 61  1  1
M  END
$$$$
