PDB_DB00783_90
     RDKit          3D

 44 47  0  0  0  0  0  0  0  0999 V2000
  -25.4040   15.5910    9.0130 C   0  0  0  0  0  0  0  0  0  0  0  0
  -25.3580   16.8170    8.3590 C   0  0  0  0  0  0  0  0  0  0  0  0
  -25.9710   17.9360    8.8980 C   0  0  0  0  0  0  0  0  0  0  0  0
  -25.9280   19.1200    8.2510 O   0  0  0  0  0  0  0  0  0  0  0  0
  -26.6230   17.8470   10.1290 C   0  0  0  0  0  0  0  0  0  0  0  0
  -26.7000   16.6420   10.8190 C   0  0  0  0  0  0  0  0  0  0  0  0
  -27.4390   16.5860   12.1390 C   0  0  0  0  0  0  0  0  0  0  0  0
  -27.7550   15.1530   12.5310 C   0  0  0  0  0  0  0  0  0  0  0  0
  -26.5150   14.2880   12.4210 C   0  0  2  0  0  0  0  0  0  0  0  0
  -26.1220   14.1190   10.9510 C   0  0  1  0  0  0  0  0  0  0  0  0
  -26.0420   15.4410   10.2510 C   0  0  0  0  0  0  0  0  0  0  0  0
  -24.8630   13.2280   10.8120 C   0  0  0  0  0  0  0  0  0  0  0  0
  -24.9840   11.8660   11.5230 C   0  0  0  0  0  0  0  0  0  0  0  0
  -25.4370   12.0420   12.9630 C   0  0  1  0  0  0  0  0  0  0  0  0
  -26.7120   12.8880   13.0100 C   0  0  1  0  0  0  0  0  0  0  0  0
  -27.2150   12.7290   14.4470 C   0  0  0  0  0  0  0  0  0  0  0  0
  -26.8000   11.3050   14.8400 C   0  0  0  0  0  0  0  0  0  0  0  0
  -25.9410   10.7890   13.6760 C   0  0  2  0  0  0  0  0  0  0  0  0
  -24.8950    9.9330   14.1370 O   0  0  0  0  0  0  0  0  0  0  0  0
  -24.2710   12.6380   13.7620 C   0  0  0  0  0  0  0  0  0  0  0  0
  -24.9272   14.7164    8.5463 H   0  0  0  0  0  0  0  0  0  0  0  0
  -24.8269   16.8996    7.3993 H   0  0  0  0  0  0  0  0  0  0  0  0
  -26.3689   19.9148    8.6434 H   0  0  0  0  0  0  0  0  0  0  0  0
  -27.0846   18.7469   10.5615 H   0  0  0  0  0  0  0  0  0  0  0  0
  -26.8132   17.0420   12.9202 H   0  0  0  0  0  0  0  0  0  0  0  0
  -28.3863   17.1348   12.0315 H   0  0  0  0  0  0  0  0  0  0  0  0
  -28.1195   15.1333   13.5687 H   0  0  0  0  0  0  0  0  0  0  0  0
  -28.5254   14.7594   11.8516 H   0  0  0  0  0  0  0  0  0  0  0  0
  -25.7302   14.8043   12.9932 H   0  0  0  0  0  0  0  0  0  0  0  0
  -26.9187   13.5734   10.4242 H   0  0  0  0  0  0  0  0  0  0  0  0
  -24.6831   13.0461    9.7422 H   0  0  0  0  0  0  0  0  0  0  0  0
  -24.0336   13.7678   11.2922 H   0  0  0  0  0  0  0  0  0  0  0  0
  -25.7178   11.2450   10.9883 H   0  0  0  0  0  0  0  0  0  0  0  0
  -23.9964   11.3815   11.5229 H   0  0  0  0  0  0  0  0  0  0  0  0
  -27.5208   12.5588   12.3410 H   0  0  0  0  0  0  0  0  0  0  0  0
  -26.7422   13.4692   15.1092 H   0  0  0  0  0  0  0  0  0  0  0  0
  -28.3000   12.8885   14.5320 H   0  0  0  0  0  0  0  0  0  0  0  0
  -26.2156   11.3187   15.7718 H   0  0  0  0  0  0  0  0  0  0  0  0
  -27.6738   10.6609   15.0178 H   0  0  0  0  0  0  0  0  0  0  0  0
  -26.5118   10.1571   12.9797 H   0  0  0  0  0  0  0  0  0  0  0  0
  -24.8865    9.9260   15.1269 H   0  0  0  0  0  0  0  0  0  0  0  0
  -24.4733   12.5346   14.8383 H   0  0  0  0  0  0  0  0  0  0  0  0
  -23.3430   12.1037   13.5103 H   0  0  0  0  0  0  0  0  0  0  0  0
  -24.1606   13.7031   13.5103 H   0  0  0  0  0  0  0  0  0  0  0  0
  1  2  2  0
  2  3  1  0
  3  4  1  0
  3  5  2  0
  5  6  1  0
  6  7  1  0
  7  8  1  0
  8  9  1  0
  9 10  1  0
  1 11  1  0
  6 11  2  0
 10 11  1  0
 10 12  1  0
 12 13  1  0
 13 14  1  0
  9 15  1  0
 14 15  1  0
 15 16  1  0
 16 17  1  0
 14 18  1  0
 17 18  1  0
 18 19  1  0
 14 20  1  1
  1 21  1  0
  2 22  1  0
  4 23  1  0
  5 24  1  0
  7 25  1  0
  7 26  1  0
  8 27  1  0
  8 28  1  0
  9 29  1  1
 10 30  1  6
 12 31  1  0
 12 32  1  0
 13 33  1  0
 13 34  1  0
 15 35  1  6
 16 36  1  0
 16 37  1  0
 17 38  1  0
 17 39  1  0
 18 40  1  6
 19 41  1  0
 20 42  1  0
 20 43  1  0
 20 44  1  0
M  END
$$$$
