PDB_DB00284_98
     RDKit          3D

 85 88  0  0  0  0  0  0  0  0999 V2000
  -31.7350   30.9460   28.4860 C   0  0  2  0  0  0  0  0  0  0  0  0
  -32.9890   30.1310   28.2740 C   0  0  1  0  0  0  0  0  0  0  0  0
  -34.0510   30.6360   29.2270 C   0  0  2  0  0  0  0  0  0  0  0  0
  -33.6540   30.3090   30.6080 C   0  0  1  0  0  0  0  0  0  0  0  0
  -32.3340   30.9090   30.9190 C   0  0  0  0  0  0  0  0  0  0  0  0
  -31.8000   30.7390   32.3070 C   0  0  0  0  0  0  0  0  0  0  0  0
  -31.4060   31.0970   29.9270 C   0  0  0  0  0  0  0  0  0  0  0  0
  -33.4330   30.2690   26.9760 O   0  0  0  0  0  0  0  0  0  0  0  0
  -35.2640   30.0540   28.9480 O   0  0  0  0  0  0  0  0  0  0  0  0
  -34.6280   30.8420   31.4130 O   0  0  0  0  0  0  0  0  0  0  0  0
  -31.1800   29.5030   32.3800 O   0  0  0  0  0  0  0  0  0  0  0  0
  -28.7190   35.0470   27.7220 C   0  0  2  0  0  0  0  0  0  0  0  0
  -28.4590   33.6640   27.2200 C   0  0  1  0  0  0  0  0  0  0  0  0
  -29.7740   33.0190   26.8540 C   0  0  2  0  0  0  0  0  0  0  0  0
  -30.6250   33.0020   28.0600 C   0  0  1  0  0  0  0  0  0  0  0  0
  -30.8410   34.4230   28.4330 C   0  0  1  0  0  0  0  0  0  0  0  0
  -31.7620   34.4740   29.5930 C   0  0  0  0  0  0  0  0  0  0  0  0
  -31.8710   32.2800   27.8580 N   0  0  0  0  0  0  0  0  0  0  0  0
  -27.7010   33.6890   26.0860 O   0  0  0  0  0  0  0  0  0  0  0  0
  -29.5080   31.6890   26.2740 O   0  0  0  0  0  0  0  0  0  0  0  0
  -29.6280   35.0210   28.7990 O   0  0  0  0  0  0  0  0  0  0  0  0
  -27.9330   38.7630   24.1780 C   0  0  2  0  0  0  0  0  0  0  0  0
  -28.1270   37.3950   23.5890 C   0  0  1  0  0  0  0  0  0  0  0  0
  -28.4530   36.2560   24.5410 C   0  0  2  0  0  0  0  0  0  0  0  0
  -28.3730   36.5950   25.9970 C   0  0  1  0  0  0  0  0  0  0  0  0
  -28.7680   38.0020   26.2470 C   0  0  1  0  0  0  0  0  0  0  0  0
  -28.5050   38.3310   27.6750 C   0  0  0  0  0  0  0  0  0  0  0  0
  -29.0970   37.4320   22.6070 O   0  0  0  0  0  0  0  0  0  0  0  0
  -27.5870   35.2440   24.2290 O   0  0  0  0  0  0  0  0  0  0  0  0
  -29.2930   35.7620   26.6570 O   0  0  0  0  0  0  0  0  0  0  0  0
  -28.0180   38.9170   25.5500 O   0  0  0  0  0  0  0  0  0  0  0  0
  -29.7220   38.3810   28.3170 O   0  0  0  0  0  0  0  0  0  0  0  0
  -32.7620   40.6780   22.9170 C   0  0  0  0  0  0  0  0  0  0  0  0
  -32.1070   40.6470   24.3160 C   0  0  1  0  0  0  0  0  0  0  0  0
  -30.5970   40.4870   24.5500 C   0  0  2  0  0  0  0  0  0  0  0  0
  -30.0390   39.6830   23.4660 C   0  0  1  0  0  0  0  0  0  0  0  0
  -30.4880   40.3720   22.1540 C   0  0  1  0  0  0  0  0  0  0  0  0
  -29.8990   39.6010   20.8910 C   0  0  0  0  0  0  0  0  0  0  0  0
  -33.6430   41.7430   22.8240 O   0  0  0  0  0  0  0  0  0  0  0  0
  -32.5170   41.8960   25.0290 O   0  0  0  0  0  0  0  0  0  0  0  0
  -30.3400   39.9620   25.7990 O   0  0  0  0  0  0  0  0  0  0  0  0
  -28.6530   39.7670   23.5040 O   0  0  0  0  0  0  0  0  0  0  0  0
  -31.8560   40.7060   21.8570 O   0  0  0  0  0  0  0  0  0  0  0  0
  -28.9470   40.4200   20.2680 O   0  0  0  0  0  0  0  0  0  0  0  0
  -30.9086   30.3998   28.0078 H   0  0  0  0  0  0  0  0  0  0  0  0
  -32.7777   29.0679   28.4613 H   0  0  0  0  0  0  0  0  0  0  0  0
  -34.1491   31.7254   29.1108 H   0  0  0  0  0  0  0  0  0  0  0  0
  -33.5583   29.2235   30.7581 H   0  0  0  0  0  0  0  0  0  0  0  0
  -31.0730   31.5346   32.5270 H   0  0  0  0  0  0  0  0  0  0  0  0
  -32.6176   30.7996   33.0404 H   0  0  0  0  0  0  0  0  0  0  0  0
  -30.3784   31.3701   30.2090 H   0  0  0  0  0  0  0  0  0  0  0  0
  -34.3784   30.5628   26.9801 H   0  0  0  0  0  0  0  0  0  0  0  0
  -35.7262   29.8322   29.7949 H   0  0  0  0  0  0  0  0  0  0  0  0
  -34.3817   30.7072   32.3624 H   0  0  0  0  0  0  0  0  0  0  0  0
  -31.0543   29.2524   33.3295 H   0  0  0  0  0  0  0  0  0  0  0  0
  -27.7846   35.5096   28.0724 H   0  0  0  0  0  0  0  0  0  0  0  0
  -27.9338   33.1095   28.0116 H   0  0  0  0  0  0  0  0  0  0  0  0
  -30.3229   33.5807   26.0838 H   0  0  0  0  0  0  0  0  0  0  0  0
  -30.1315   32.4550   28.8768 H   0  0  0  0  0  0  0  0  0  0  0  0
  -31.2643   34.9613   27.5721 H   0  0  0  0  0  0  0  0  0  0  0  0
  -31.1794   34.4417   30.5255 H   0  0  0  0  0  0  0  0  0  0  0  0
  -32.3455   35.4058   29.5573 H   0  0  0  0  0  0  0  0  0  0  0  0
  -32.4448   33.6123   29.5573 H   0  0  0  0  0  0  0  0  0  0  0  0
  -32.0542   32.1745   26.8499 H   0  0  0  0  0  0  0  0  0  0  0  0
  -26.7422   33.7206   26.3306 H   0  0  0  0  0  0  0  0  0  0  0  0
  -29.3765   31.0316   27.0025 H   0  0  0  0  0  0  0  0  0  0  0  0
  -26.8568   38.8949   23.9928 H   0  0  0  0  0  0  0  0  0  0  0  0
  -27.1267   37.1561   23.1988 H   0  0  0  0  0  0  0  0  0  0  0  0
  -29.5086   35.9794   24.4026 H   0  0  0  0  0  0  0  0  0  0  0  0
  -27.3408   36.4573   26.3513 H   0  0  0  0  0  0  0  0  0  0  0  0
  -29.8237   38.0678   25.9451 H   0  0  0  0  0  0  0  0  0  0  0  0
  -27.8719   37.5546   28.1293 H   0  0  0  0  0  0  0  0  0  0  0  0
  -27.9805   39.2940   27.7614 H   0  0  0  0  0  0  0  0  0  0  0  0
  -29.9921   37.4661   23.0285 H   0  0  0  0  0  0  0  0  0  0  0  0
  -27.2397   34.8381   25.0625 H   0  0  0  0  0  0  0  0  0  0  0  0
  -29.5788   38.3751   29.2966 H   0  0  0  0  0  0  0  0  0  0  0  0
  -32.4757   39.6744   24.6739 H   0  0  0  0  0  0  0  0  0  0  0  0
  -30.1043   41.4704   24.5367 H   0  0  0  0  0  0  0  0  0  0  0  0
  -30.3625   38.6345   23.5432 H   0  0  0  0  0  0  0  0  0  0  0  0
  -30.0728   41.3672   22.3712 H   0  0  0  0  0  0  0  0  0  0  0  0
  -29.4242   38.6641   21.2177 H   0  0  0  0  0  0  0  0  0  0  0  0
  -30.7089   39.3643   20.1853 H   0  0  0  0  0  0  0  0  0  0  0  0
  -32.4687   41.7488   26.0068 H   0  0  0  0  0  0  0  0  0  0  0  0
  -30.6502   40.5957   26.4935 H   0  0  0  0  0  0  0  0  0  0  0  0
  -28.4084   40.8833   20.9575 H   0  0  0  0  0  0  0  0  0  0  0  0
  1  2  1  0
  2  3  1  0
  3  4  1  0
  4  5  1  0
  5  6  1  0
  1  7  1  0
  5  7  2  0
  2  8  1  0
  3  9  1  0
  4 10  1  0
  6 11  1  0
 12 13  1  0
 13 14  1  0
 14 15  1  0
 15 16  1  0
 16 17  1  0
  1 18  1  0
 15 18  1  0
 13 19  1  0
 14 20  1  0
 12 21  1  0
 16 21  1  0
 22 23  1  0
 23 24  1  0
 24 25  1  0
 25 26  1  0
 26 27  1  0
 23 28  1  0
 24 29  1  0
 12 30  1  0
 25 30  1  0
 22 31  1  0
 26 31  1  0
 27 32  1  0
 33 34  1  0
 34 35  1  0
 35 36  1  0
 36 37  1  0
 37 38  1  0
 33 39  2  0
 34 40  1  0
 35 41  1  0
 22 42  1  0
 36 42  1  0
 33 43  1  0
 37 43  1  0
 38 44  1  0
  1 45  1  6
  2 46  1  1
  3 47  1  1
  4 48  1  6
  6 49  1  0
  6 50  1  0
  7 51  1  0
  8 52  1  0
  9 53  1  0
 10 54  1  0
 11 55  1  0
 12 56  1  1
 13 57  1  1
 14 58  1  6
 15 59  1  1
 16 60  1  6
 17 61  1  0
 17 62  1  0
 17 63  1  0
 18 64  1  0
 19 65  1  0
 20 66  1  0
 22 67  1  6
 23 68  1  6
 24 69  1  6
 25 70  1  1
 26 71  1  6
 27 72  1  0
 27 73  1  0
 28 74  1  0
 29 75  1  0
 32 76  1  0
 34 77  1  1
 35 78  1  1
 36 79  1  6
 37 80  1  1
 38 81  1  0
 38 82  1  0
 40 83  1  0
 41 84  1  0
 44 85  1  0
M  END
$$$$
