PDB_DB00152_99
     RDKit          3D

 35 36  0  0  0  0  0  0  0  0999 V2000
    7.1840   69.6540   25.1800 C   0  0  0  0  0  0  0  0  0  0  0  0
    4.5780   71.4180   21.3770 N   0  0  0  0  0  0  0  0  0  0  0  0
    6.4560   72.3450   16.8510 C   0  0  0  0  0  0  0  0  0  0  0  0
    5.8850   69.7960   12.8260 O   0  0  0  0  0  0  0  0  0  0  0  0
    6.1380   69.4270   14.1750 C   0  0  0  0  0  0  0  0  0  0  0  0
    5.1760   70.2160   15.0680 C   0  0  0  0  0  0  0  0  0  0  0  0
    5.9810   69.3240   18.7580 C   0  0  0  0  0  0  0  0  0  0  0  0
    5.2670   68.4520   17.3830 S   0  0  0  0  0  0  0  0  0  0  0  0
    5.5450   70.0050   16.5190 C   0  0  0  0  0  0  0  0  0  0  0  0
    6.1110   70.9390   17.3250 C   0  0  0  0  0  0  0  0  0  0  0  0
    6.3190   70.5140   18.5200 N   0  0  0  0  0  0  0  0  0  0  0  0
    6.9170   71.3440   19.5880 C   0  0  0  0  0  0  0  0  0  0  0  0
    5.8140   70.9600   21.8770 C   0  0  0  0  0  0  0  0  0  0  0  0
    5.8980   70.5530   23.2190 N   0  0  0  0  0  0  0  0  0  0  0  0
    7.1050   70.0910   23.7500 C   0  0  0  0  0  0  0  0  0  0  0  0
    8.2450   70.0410   22.9310 N   0  0  0  0  0  0  0  0  0  0  0  0
    8.1760   70.4470   21.5840 C   0  0  0  0  0  0  0  0  0  0  0  0
    6.9680   70.9110   21.0450 C   0  0  0  0  0  0  0  0  0  0  0  0
    7.0272   70.5216   25.8377 H   0  0  0  0  0  0  0  0  0  0  0  0
    6.4076   68.8999   25.3764 H   0  0  0  0  0  0  0  0  0  0  0  0
    8.1753   69.2194   25.3764 H   0  0  0  0  0  0  0  0  0  0  0  0
    4.4996   71.7200   20.3954 H   0  0  0  0  0  0  0  0  0  0  0  0
    3.7534   71.4506   21.9933 H   0  0  0  0  0  0  0  0  0  0  0  0
    6.6159   72.9968   17.7225 H   0  0  0  0  0  0  0  0  0  0  0  0
    7.3729   72.3127   16.2441 H   0  0  0  0  0  0  0  0  0  0  0  0
    5.6283   72.7408   16.2441 H   0  0  0  0  0  0  0  0  0  0  0  0
    5.3253   70.6124   12.8066 H   0  0  0  0  0  0  0  0  0  0  0  0
    5.9686   68.3479   14.3052 H   0  0  0  0  0  0  0  0  0  0  0  0
    7.1808   69.6509   14.4440 H   0  0  0  0  0  0  0  0  0  0  0  0
    5.2446   71.2865   14.8244 H   0  0  0  0  0  0  0  0  0  0  0  0
    4.1474   69.8655   14.8972 H   0  0  0  0  0  0  0  0  0  0  0  0
    6.1177   68.8582   19.7451 H   0  0  0  0  0  0  0  0  0  0  0  0
    7.9606   71.5184   19.2873 H   0  0  0  0  0  0  0  0  0  0  0  0
    6.2097   72.1852   19.6339 H   0  0  0  0  0  0  0  0  0  0  0  0
    9.0748   70.3997   20.9516 H   0  0  0  0  0  0  0  0  0  0  0  0
  4  5  1  0
  5  6  1  0
  7  8  1  0
  6  9  1  0
  8  9  1  0
  3 10  1  0
  9 10  2  0
  7 11  2  0
 10 11  1  0
 11 12  1  0
  2 13  1  0
 13 14  2  0
  1 15  1  0
 14 15  1  0
 15 16  2  0
 16 17  1  0
 12 18  1  0
 13 18  1  0
 17 18  2  0
  1 19  1  0
  1 20  1  0
  1 21  1  0
  2 22  1  0
  2 23  1  0
  3 24  1  0
  3 25  1  0
  3 26  1  0
  4 27  1  0
  5 28  1  0
  5 29  1  0
  6 30  1  0
  6 31  1  0
  7 32  1  0
 12 33  1  0
 12 34  1  0
 17 35  1  0
M  CHG  1  11   1
M  END
$$$$
