PDB_DB04729_91
     RDKit          3D

 70 72  0  0  0  0  0  0  0  0999 V2000
  105.0420   -0.1670  -32.3680 C   0  0  2  0  0  0  0  0  0  0  0  0
  105.4190    1.2440  -32.3980 O   0  0  0  0  0  0  0  0  0  0  0  0
  104.6570   -0.5400  -30.9120 C   0  0  2  0  0  0  0  0  0  0  0  0
  103.5910    0.3140  -30.5100 N   0  0  0  0  0  0  0  0  0  0  0  0
  105.9220   -0.4120  -29.9510 C   0  0  0  0  0  0  0  0  0  0  0  0
  107.0250   -1.4040  -30.4710 C   0  0  0  0  0  0  0  0  0  0  0  0
  107.3910   -1.0160  -31.9780 C   0  0  2  0  0  0  0  0  0  0  0  0
  106.1950   -1.0060  -32.8480 O   0  0  0  0  0  0  0  0  0  0  0  0
  108.4350   -1.9240  -32.5880 C   0  0  0  0  0  0  0  0  0  0  0  0
  108.8160   -1.5050  -33.9120 N   0  0  0  0  0  0  0  0  0  0  0  0
  105.1060    4.5990  -35.0730 C   0  0  2  0  0  0  0  0  0  0  0  0
  105.0920    5.3520  -36.2880 N   0  0  0  0  0  0  0  0  0  0  0  0
  106.5050    3.8940  -34.9230 C   0  0  0  0  0  0  0  0  0  0  0  0
  106.5390    3.0460  -33.5790 C   0  0  2  0  0  0  0  0  0  0  0  0
  107.8360    2.3760  -33.4240 N   0  0  0  0  0  0  0  0  0  0  0  0
  105.3680    1.9760  -33.5830 C   0  0  2  0  0  0  0  0  0  0  0  0
  103.9680    2.7180  -33.7530 C   0  0  2  0  0  0  0  0  0  0  0  0
  102.9080    1.7640  -33.7660 O   0  0  0  0  0  0  0  0  0  0  0  0
  103.9560    3.5510  -35.0990 C   0  0  1  0  0  0  0  0  0  0  0  0
  102.6970    4.2050  -35.2120 O   0  0  0  0  0  0  0  0  0  0  0  0
  101.8700    4.2060  -36.4170 C   0  0  2  0  0  0  0  0  0  0  0  0
  101.0400    5.5230  -36.3460 C   0  0  2  0  0  0  0  0  0  0  0  0
  101.9130    6.6300  -36.3070 O   0  0  0  0  0  0  0  0  0  0  0  0
  100.0880    5.4580  -35.0650 C   0  0  1  0  0  0  0  0  0  0  0  0
   99.2640    6.7060  -34.9250 N   0  0  0  0  0  0  0  0  0  0  0  0
   99.1020    4.1590  -35.1540 C   0  0  1  0  0  0  0  0  0  0  0  0
   98.2300    4.2510  -36.2660 O   0  0  0  0  0  0  0  0  0  0  0  0
   99.9590    2.8600  -35.3090 C   0  0  0  0  0  0  0  0  0  0  0  0
  100.9430    3.0140  -36.4520 O   0  0  0  0  0  0  0  0  0  0  0  0
   98.1280    3.9520  -33.9850 C   0  0  0  0  0  0  0  0  0  0  0  0
   99.5320    7.5610  -33.7550 C   0  0  0  0  0  0  0  0  0  0  0  0
  104.1835   -0.3526  -33.0303 H   0  0  0  0  0  0  0  0  0  0  0  0
  104.3237   -1.5865  -30.8516 H   0  0  0  0  0  0  0  0  0  0  0  0
  103.5479    0.3485  -29.4815 H   0  0  0  0  0  0  0  0  0  0  0  0
  103.7528    1.2620  -30.8789 H   0  0  0  0  0  0  0  0  0  0  0  0
  106.3056    0.6187  -29.9732 H   0  0  0  0  0  0  0  0  0  0  0  0
  105.6433   -0.6569  -28.9155 H   0  0  0  0  0  0  0  0  0  0  0  0
  107.9222   -1.3245  -29.8396 H   0  0  0  0  0  0  0  0  0  0  0  0
  106.6504   -2.4374  -30.4296 H   0  0  0  0  0  0  0  0  0  0  0  0
  107.8121   -0.0015  -31.9186 H   0  0  0  0  0  0  0  0  0  0  0  0
  109.3274   -1.9195  -31.9448 H   0  0  0  0  0  0  0  0  0  0  0  0
  108.0013   -2.9319  -32.6653 H   0  0  0  0  0  0  0  0  0  0  0  0
  109.5075   -0.7445  -33.8458 H   0  0  0  0  0  0  0  0  0  0  0  0
  109.2287   -2.3012  -34.4186 H   0  0  0  0  0  0  0  0  0  0  0  0
  104.9493    5.2638  -34.2107 H   0  0  0  0  0  0  0  0  0  0  0  0
  105.0733    6.3581  -36.0682 H   0  0  0  0  0  0  0  0  0  0  0  0
  105.9372    5.1359  -36.8356 H   0  0  0  0  0  0  0  0  0  0  0  0
  106.6710    3.2257  -35.7808 H   0  0  0  0  0  0  0  0  0  0  0  0
  107.2954    4.6584  -34.8904 H   0  0  0  0  0  0  0  0  0  0  0  0
  106.3972    3.7299  -32.7292 H   0  0  0  0  0  0  0  0  0  0  0  0
  108.0482    2.2664  -32.4221 H   0  0  0  0  0  0  0  0  0  0  0  0
  107.7989    1.4486  -33.8706 H   0  0  0  0  0  0  0  0  0  0  0  0
  105.4853    1.2803  -34.4269 H   0  0  0  0  0  0  0  0  0  0  0  0
  103.8241    3.4035  -32.9048 H   0  0  0  0  0  0  0  0  0  0  0  0
  102.6564    1.5376  -32.8357 H   0  0  0  0  0  0  0  0  0  0  0  0
  104.1072    2.8861  -35.9621 H   0  0  0  0  0  0  0  0  0  0  0  0
  102.4910    4.1469  -37.3230 H   0  0  0  0  0  0  0  0  0  0  0  0
  100.4075    5.6379  -37.2386 H   0  0  0  0  0  0  0  0  0  0  0  0
  102.1013    6.8688  -35.3648 H   0  0  0  0  0  0  0  0  0  0  0  0
  100.7338    5.3695  -34.1789 H   0  0  0  0  0  0  0  0  0  0  0  0
   99.4198    7.2766  -35.7682 H   0  0  0  0  0  0  0  0  0  0  0  0
   97.2979    4.3493  -35.9472 H   0  0  0  0  0  0  0  0  0  0  0  0
  100.5120    2.6763  -34.3760 H   0  0  0  0  0  0  0  0  0  0  0  0
   99.2906    2.0130  -35.5230 H   0  0  0  0  0  0  0  0  0  0  0  0
   98.6677    4.0667  -33.0334 H   0  0  0  0  0  0  0  0  0  0  0  0
   97.3226    4.6990  -34.0421 H   0  0  0  0  0  0  0  0  0  0  0  0
   97.6960    2.9420  -34.0421 H   0  0  0  0  0  0  0  0  0  0  0  0
   99.3524    6.9880  -32.8333 H   0  0  0  0  0  0  0  0  0  0  0  0
  100.5788    7.8979  -33.7792 H   0  0  0  0  0  0  0  0  0  0  0  0
   98.8648    8.4352  -33.7792 H   0  0  0  0  0  0  0  0  0  0  0  0
  2  1  1  0
  3  1  1  0
  4  3  1  0
  5  3  1  0
  6  5  1  0
  7  6  1  0
  8  7  1  0
  8  1  1  0
  9  7  1  0
 10  9  1  0
 12 11  1  0
 13 11  1  0
 14 13  1  0
 15 14  1  0
 16 14  1  0
 16  2  1  0
 17 16  1  0
 18 17  1  0
 19 17  1  0
 19 11  1  0
 20 19  1  0
 21 20  1  0
 22 21  1  0
 23 22  1  0
 24 22  1  0
 25 24  1  0
 26 24  1  0
 26 27  1  6
 28 26  1  0
 29 28  1  0
 29 21  1  0
 30 26  1  0
 31 25  1  0
  1 32  1  6
  3 33  1  6
  4 34  1  0
  4 35  1  0
  5 36  1  0
  5 37  1  0
  6 38  1  0
  6 39  1  0
  7 40  1  1
  9 41  1  0
  9 42  1  0
 10 43  1  0
 10 44  1  0
 11 45  1  1
 12 46  1  0
 12 47  1  0
 13 48  1  0
 13 49  1  0
 14 50  1  1
 15 51  1  0
 15 52  1  0
 16 53  1  6
 17 54  1  1
 18 55  1  0
 19 56  1  6
 21 57  1  6
 22 58  1  6
 23 59  1  0
 24 60  1  1
 25 61  1  0
 27 62  1  0
 28 63  1  0
 28 64  1  0
 30 65  1  0
 30 66  1  0
 30 67  1  0
 31 68  1  0
 31 69  1  0
 31 70  1  0
M  END
$$$$
