PDB_DB00184_99
     RDKit          3D

 26 27  0  0  0  0  0  0  0  0999 V2000
   69.3500  -25.7340  -42.4450 N   0  0  0  0  0  0  0  0  0  0  0  0
   68.4560  -26.2350  -41.5570 C   0  0  0  0  0  0  0  0  0  0  0  0
   68.3180  -27.6120  -41.2940 C   0  0  0  0  0  0  0  0  0  0  0  0
   69.1440  -28.4790  -42.0040 C   0  0  0  0  0  0  0  0  0  0  0  0
   70.0670  -27.9890  -42.9290 C   0  0  0  0  0  0  0  0  0  0  0  0
   70.1380  -26.6050  -43.1220 C   0  0  0  0  0  0  0  0  0  0  0  0
   67.3670  -27.2020  -39.0760 N   0  0  0  0  0  0  0  0  0  0  0  0
   67.3240  -28.1100  -40.2920 C   0  0  1  0  0  0  0  0  0  0  0  0
   65.8770  -28.0320  -40.6550 C   0  0  0  0  0  0  0  0  0  0  0  0
   65.1070  -27.9140  -39.3700 C   0  0  0  0  0  0  0  0  0  0  0  0
   66.0000  -27.0950  -38.4900 C   0  0  0  0  0  0  0  0  0  0  0  0
   68.1510  -28.0170  -38.1560 C   0  0  0  0  0  0  0  0  0  0  0  0
   67.8066  -25.5315  -41.0154 H   0  0  0  0  0  0  0  0  0  0  0  0
   69.0683  -29.5631  -41.8339 H   0  0  0  0  0  0  0  0  0  0  0  0
   70.7208  -28.6722  -43.4910 H   0  0  0  0  0  0  0  0  0  0  0  0
   70.8605  -26.2087  -43.8506 H   0  0  0  0  0  0  0  0  0  0  0  0
   67.6197  -29.1627  -40.1726 H   0  0  0  0  0  0  0  0  0  0  0  0
   65.6933  -27.1511  -41.2877 H   0  0  0  0  0  0  0  0  0  0  0  0
   65.5653  -28.9236  -41.2188 H   0  0  0  0  0  0  0  0  0  0  0  0
   64.1459  -27.4049  -39.5348 H   0  0  0  0  0  0  0  0  0  0  0  0
   64.8601  -28.8922  -38.9316 H   0  0  0  0  0  0  0  0  0  0  0  0
   65.9923  -27.4909  -37.4637 H   0  0  0  0  0  0  0  0  0  0  0  0
   65.6648  -26.0485  -38.4391 H   0  0  0  0  0  0  0  0  0  0  0  0
   67.8945  -27.7503  -37.1201 H   0  0  0  0  0  0  0  0  0  0  0  0
   67.9278  -29.0805  -38.3269 H   0  0  0  0  0  0  0  0  0  0  0  0
   69.2223  -27.8352  -38.3269 H   0  0  0  0  0  0  0  0  0  0  0  0
  1  2  2  0
  2  3  1  0
  3  4  2  0
  4  5  1  0
  1  6  1  0
  5  6  2  0
  3  8  1  0
  7  8  1  0
  8  9  1  0
  9 10  1  0
  7 11  1  0
 10 11  1  0
  7 12  1  0
  2 13  1  0
  4 14  1  0
  5 15  1  0
  6 16  1  0
  8 17  1  1
  9 18  1  0
  9 19  1  0
 10 20  1  0
 10 21  1  0
 11 22  1  0
 11 23  1  0
 12 24  1  0
 12 25  1  0
 12 26  1  0
M  END
$$$$
