PDB_DB00523_91
     RDKit          3D

 50 50  0  0  0  0  0  0  0  0999 V2000
   39.6330   24.3860  123.7260 C   0  0  0  0  0  0  0  0  0  0  0  0
   38.2060   24.7140  124.3040 C   0  0  0  0  0  0  0  0  0  0  0  0
   37.3560   23.5590  124.8370 C   0  0  0  0  0  0  0  0  0  0  0  0
   38.1060   22.6520  125.7860 C   0  0  0  0  0  0  0  0  0  0  0  0
   39.6320   22.4770  125.5610 C   0  0  0  0  0  0  0  0  0  0  0  0
   40.3540   23.2580  124.6360 C   0  0  0  0  0  0  0  0  0  0  0  0
   41.8060   23.0760  124.4260 C   0  0  0  0  0  0  0  0  0  0  0  0
   42.7730   23.1790  125.3450 C   0  0  0  0  0  0  0  0  0  0  0  0
   44.1500   22.9920  125.3280 C   0  0  0  0  0  0  0  0  0  0  0  0
   44.8460   23.1690  126.4600 C   0  0  0  0  0  0  0  0  0  0  0  0
   44.4750   23.5740  127.8180 C   0  0  0  0  0  0  0  0  0  0  0  0
   45.3470   23.6090  128.8570 C   0  0  0  0  0  0  0  0  0  0  0  0
   44.9670   24.0250  130.2450 C   0  0  0  0  0  0  0  0  0  0  0  0
   45.9200   23.9280  131.1330 C   0  0  0  0  0  0  0  0  0  0  0  0
   46.0090   24.1720  132.5960 C   0  0  0  0  0  0  0  0  0  0  0  0
   40.3110   25.7810  123.6660 C   0  0  0  0  0  0  0  0  0  0  0  0
   39.4740   23.9000  122.2910 C   0  0  0  0  0  0  0  0  0  0  0  0
   40.0780   21.3730  126.4870 C   0  0  0  0  0  0  0  0  0  0  0  0
   44.8140   22.5590  124.0490 C   0  0  0  0  0  0  0  0  0  0  0  0
   43.5620   24.4800  130.5810 C   0  0  0  0  0  0  0  0  0  0  0  0
   45.3710   25.1240  133.1820 O   0  0  0  0  0  0  0  0  0  0  0  0
   46.7200   23.3350  133.2500 O   0  0  0  0  0  0  0  0  0  0  0  0
   38.3455   25.4247  125.1319 H   0  0  0  0  0  0  0  0  0  0  0  0
   37.6417   25.0887  123.4373 H   0  0  0  0  0  0  0  0  0  0  0  0
   36.4893   23.9796  125.3679 H   0  0  0  0  0  0  0  0  0  0  0  0
   37.0566   22.9490  123.9720 H   0  0  0  0  0  0  0  0  0  0  0  0
   37.9672   23.0517  126.8014 H   0  0  0  0  0  0  0  0  0  0  0  0
   37.6821   21.6525  125.6092 H   0  0  0  0  0  0  0  0  0  0  0  0
   42.1262   22.8291  123.4030 H   0  0  0  0  0  0  0  0  0  0  0  0
   42.3939   23.4781  126.3334 H   0  0  0  0  0  0  0  0  0  0  0  0
   45.9213   22.9679  126.3450 H   0  0  0  0  0  0  0  0  0  0  0  0
   43.4313   23.8660  128.0059 H   0  0  0  0  0  0  0  0  0  0  0  0
   46.3905   23.3157  128.6697 H   0  0  0  0  0  0  0  0  0  0  0  0
   46.8724   23.5889  130.6996 H   0  0  0  0  0  0  0  0  0  0  0  0
   40.4887   26.1466  124.6881 H   0  0  0  0  0  0  0  0  0  0  0  0
   41.2702   25.6999  123.1337 H   0  0  0  0  0  0  0  0  0  0  0  0
   39.6546   26.4851  123.1337 H   0  0  0  0  0  0  0  0  0  0  0  0
   39.1320   22.8545  122.2937 H   0  0  0  0  0  0  0  0  0  0  0  0
   38.7340   24.5265  121.7715 H   0  0  0  0  0  0  0  0  0  0  0  0
   40.4412   23.9680  121.7715 H   0  0  0  0  0  0  0  0  0  0  0  0
   39.9479   21.6950  127.5308 H   0  0  0  0  0  0  0  0  0  0  0  0
   39.4729   20.4730  126.3028 H   0  0  0  0  0  0  0  0  0  0  0  0
   41.1384   21.1459  126.3028 H   0  0  0  0  0  0  0  0  0  0  0  0
   45.7142   21.9720  124.2837 H   0  0  0  0  0  0  0  0  0  0  0  0
   44.1160   21.9419  123.4642 H   0  0  0  0  0  0  0  0  0  0  0  0
   45.0972   23.4466  123.4642 H   0  0  0  0  0  0  0  0  0  0  0  0
   43.4407   24.5193  131.6736 H   0  0  0  0  0  0  0  0  0  0  0  0
   43.3891   25.4801  130.1567 H   0  0  0  0  0  0  0  0  0  0  0  0
   42.8357   23.7711  130.1567 H   0  0  0  0  0  0  0  0  0  0  0  0
   45.4593   25.2505  134.1599 H   0  0  0  0  0  0  0  0  0  0  0  0
  1  2  1  0
  2  3  1  0
  3  4  1  0
  4  5  1  0
  1  6  1  0
  5  6  2  0
  6  7  1  0
  7  8  2  0
  8  9  1  0
  9 10  2  0
 10 11  1  0
 11 12  2  0
 12 13  1  0
 13 14  2  0
 14 15  1  0
  1 16  1  0
  1 17  1  0
  5 18  1  0
  9 19  1  0
 13 20  1  0
 15 21  1  0
 15 22  2  0
  2 23  1  0
  2 24  1  0
  3 25  1  0
  3 26  1  0
  4 27  1  0
  4 28  1  0
  7 29  1  0
  8 30  1  0
 10 31  1  0
 11 32  1  0
 12 33  1  0
 14 34  1  0
 16 35  1  0
 16 36  1  0
 16 37  1  0
 17 38  1  0
 17 39  1  0
 17 40  1  0
 18 41  1  0
 18 42  1  0
 18 43  1  0
 19 44  1  0
 19 45  1  0
 19 46  1  0
 20 47  1  0
 20 48  1  0
 20 49  1  0
 21 50  1  0
M  END
$$$$
