PDB_DB01199_96
     RDKit          3D

 86 92  0  0  0  0  0  0  0  0999 V2000
   47.0190  110.2030   70.4660 N   0  0  0  0  0  0  0  0  0  0  0  0
   45.9110  110.9250   71.0010 C   0  0  0  0  0  0  0  0  0  0  0  0
   45.7530  112.2810   70.3800 C   0  0  0  0  0  0  0  0  0  0  0  0
   46.1440  112.3530   68.9360 C   0  0  0  0  0  0  0  0  0  0  0  0
   46.6300  111.2050   68.2540 C   0  0  0  0  0  0  0  0  0  0  0  0
   46.8040  109.8880   68.9890 C   0  0  2  0  0  0  0  0  0  0  0  0
   45.9870  113.5810   68.2380 C   0  0  0  0  0  0  0  0  0  0  0  0
   46.3400  113.6570   66.8700 C   0  0  0  0  0  0  0  0  0  0  0  0
   46.8420  112.5230   66.2030 C   0  0  0  0  0  0  0  0  0  0  0  0
   46.9970  111.2850   66.8800 C   0  0  0  0  0  0  0  0  0  0  0  0
   47.1150  112.6750   64.8290 O   0  0  0  0  0  0  0  0  0  0  0  0
   48.1930  111.8870   64.3830 C   0  0  0  0  0  0  0  0  0  0  0  0
   49.4760  112.4450   64.4200 C   0  0  0  0  0  0  0  0  0  0  0  0
   50.5450  111.7190   63.9410 C   0  0  0  0  0  0  0  0  0  0  0  0
   50.3420  110.4250   63.4120 C   0  0  0  0  0  0  0  0  0  0  0  0
   49.0470  109.9000   63.3780 C   0  0  0  0  0  0  0  0  0  0  0  0
   47.9670  110.6200   63.8510 C   0  0  0  0  0  0  0  0  0  0  0  0
   48.8040  108.4800   62.8180 C   0  0  0  0  0  0  0  0  0  0  0  0
   47.8950  108.4800   61.5570 C   0  0  1  0  0  0  0  0  0  0  0  0
   48.5830  108.7040   60.3040 N   0  0  0  0  0  0  0  0  0  0  0  0
   49.5340  107.6670   60.0070 C   0  0  0  0  0  0  0  0  0  0  0  0
   48.9710  106.2680   59.9580 C   0  0  0  0  0  0  0  0  0  0  0  0
   47.8680  106.0010   60.9190 C   0  0  0  0  0  0  0  0  0  0  0  0
   47.2900  107.0530   61.6690 C   0  0  0  0  0  0  0  0  0  0  0  0
   47.3690  104.6850   61.0580 C   0  0  0  0  0  0  0  0  0  0  0  0
   46.3330  104.4190   61.9260 C   0  0  0  0  0  0  0  0  0  0  0  0
   45.7520  105.4810   62.6880 C   0  0  0  0  0  0  0  0  0  0  0  0
   46.2670  106.7910   62.5660 C   0  0  0  0  0  0  0  0  0  0  0  0
   45.6230  107.8610   63.2050 O   0  0  0  0  0  0  0  0  0  0  0  0
   45.6580  107.9730   64.6010 C   0  0  0  0  0  0  0  0  0  0  0  0
   44.7810  108.9310   65.1630 C   0  0  0  0  0  0  0  0  0  0  0  0
   44.7740  109.1690   66.5310 C   0  0  0  0  0  0  0  0  0  0  0  0
   45.6400  108.4690   67.3470 C   0  0  0  0  0  0  0  0  0  0  0  0
   46.5320  107.5000   66.8000 C   0  0  0  0  0  0  0  0  0  0  0  0
   46.5440  107.2610   65.4250 C   0  0  0  0  0  0  0  0  0  0  0  0
   45.6840  108.8360   68.8020 C   0  0  0  0  0  0  0  0  0  0  0  0
   46.1470  114.8270   66.1290 O   0  0  0  0  0  0  0  0  0  0  0  0
   45.9620  116.0680   66.7740 C   0  0  0  0  0  0  0  0  0  0  0  0
   49.6300  113.7240   64.9430 O   0  0  0  0  0  0  0  0  0  0  0  0
   45.8600  103.1200   62.0310 O   0  0  0  0  0  0  0  0  0  0  0  0
   45.4290  102.4710   60.9030 C   0  0  0  0  0  0  0  0  0  0  0  0
   44.7050  105.2410   63.5530 O   0  0  0  0  0  0  0  0  0  0  0  0
   48.1310  110.9440   71.0620 C   0  0  0  0  0  0  0  0  0  0  0  0
   49.2930  110.0060   60.3080 C   0  0  0  0  0  0  0  0  0  0  0  0
   47.5860  108.8040   59.1960 C   0  0  0  0  0  0  0  0  0  0  0  0
   44.9932  110.3460   70.8213 H   0  0  0  0  0  0  0  0  0  0  0  0
   46.0950  111.0698   72.0758 H   0  0  0  0  0  0  0  0  0  0  0  0
   44.6969  112.5767   70.4650 H   0  0  0  0  0  0  0  0  0  0  0  0
   46.4335  112.9542   70.9220 H   0  0  0  0  0  0  0  0  0  0  0  0
   47.6760  109.3948   68.5346 H   0  0  0  0  0  0  0  0  0  0  0  0
   45.5935  114.4668   68.7581 H   0  0  0  0  0  0  0  0  0  0  0  0
   47.3930  110.4041   66.3535 H   0  0  0  0  0  0  0  0  0  0  0  0
   51.5576  112.1477   63.9706 H   0  0  0  0  0  0  0  0  0  0  0  0
   51.1915  109.8385   63.0320 H   0  0  0  0  0  0  0  0  0  0  0  0
   46.9506  110.2016   63.8083 H   0  0  0  0  0  0  0  0  0  0  0  0
   49.7745  108.0357   62.5522 H   0  0  0  0  0  0  0  0  0  0  0  0
   48.2904  107.8986   63.5979 H   0  0  0  0  0  0  0  0  0  0  0  0
   47.1690  109.3062   61.5383 H   0  0  0  0  0  0  0  0  0  0  0  0
   49.9815  107.8874   59.0266 H   0  0  0  0  0  0  0  0  0  0  0  0
   50.2584  107.6736   60.8348 H   0  0  0  0  0  0  0  0  0  0  0  0
   48.5893  106.0891   58.9420 H   0  0  0  0  0  0  0  0  0  0  0  0
   49.7942  105.5950   60.2398 H   0  0  0  0  0  0  0  0  0  0  0  0
   47.8113  103.8681   60.4688 H   0  0  0  0  0  0  0  0  0  0  0  0
   44.0977  109.4930   64.5093 H   0  0  0  0  0  0  0  0  0  0  0  0
   44.0837  109.9096   66.9612 H   0  0  0  0  0  0  0  0  0  0  0  0
   47.2103  106.9412   67.4615 H   0  0  0  0  0  0  0  0  0  0  0  0
   47.2380  106.5250   64.9929 H   0  0  0  0  0  0  0  0  0  0  0  0
   45.9034  107.9438   69.4068 H   0  0  0  0  0  0  0  0  0  0  0  0
   44.7150  109.2436   69.1257 H   0  0  0  0  0  0  0  0  0  0  0  0
   45.9838  115.9216   67.8640 H   0  0  0  0  0  0  0  0  0  0  0  0
   46.7673  116.7574   66.4805 H   0  0  0  0  0  0  0  0  0  0  0  0
   44.9906  116.4926   66.4805 H   0  0  0  0  0  0  0  0  0  0  0  0
   50.5280  114.1391   64.9794 H   0  0  0  0  0  0  0  0  0  0  0  0
   44.8416  101.5866   61.1907 H   0  0  0  0  0  0  0  0  0  0  0  0
   44.8016  103.1497   60.3066 H   0  0  0  0  0  0  0  0  0  0  0  0
   46.2980  102.1560   60.3066 H   0  0  0  0  0  0  0  0  0  0  0  0
   44.3127  105.9858   64.0740 H   0  0  0  0  0  0  0  0  0  0  0  0
   48.0581  110.8954   72.1585 H   0  0  0  0  0  0  0  0  0  0  0  0
   49.0835  110.4994   70.7378 H   0  0  0  0  0  0  0  0  0  0  0  0
   48.0874  111.9942   70.7378 H   0  0  0  0  0  0  0  0  0  0  0  0
   49.4672  110.3255   61.3461 H   0  0  0  0  0  0  0  0  0  0  0  0
   50.2577  109.8991   59.7904 H   0  0  0  0  0  0  0  0  0  0  0  0
   48.6807  110.7591   59.7904 H   0  0  0  0  0  0  0  0  0  0  0  0
   46.5759  108.9053   59.6197 H   0  0  0  0  0  0  0  0  0  0  0  0
   47.8136  109.6838   58.5762 H   0  0  0  0  0  0  0  0  0  0  0  0
   47.6343  107.8965   58.5762 H   0  0  0  0  0  0  0  0  0  0  0  0
  1  2  1  0
  2  3  1  0
  3  4  1  0
  4  5  2  0
  1  6  1  0
  5  6  1  0
  4  7  1  0
  7  8  2  0
  8  9  1  0
  5 10  1  0
  9 10  2  0
  9 11  1  0
 11 12  1  0
 12 13  2  0
 13 14  1  0
 14 15  2  0
 15 16  1  0
 12 17  1  0
 16 17  2  0
 16 18  1  0
 18 19  1  0
 19 20  1  0
 20 21  1  0
 21 22  1  0
 22 23  1  0
 19 24  1  0
 23 24  2  0
 23 25  1  0
 25 26  2  0
 26 27  1  0
 24 28  1  0
 27 28  2  0
 28 29  1  0
 29 30  1  0
 30 31  2  0
 31 32  1  0
 32 33  2  0
 33 34  1  0
 30 35  1  0
 34 35  2  0
  6 36  1  0
 33 36  1  0
  8 37  1  0
 37 38  1  0
 13 39  1  0
 26 40  1  0
 40 41  1  0
 27 42  1  0
  1 43  1  0
 20 44  1  0
 20 45  1  0
  2 46  1  0
  2 47  1  0
  3 48  1  0
  3 49  1  0
  6 50  1  6
  7 51  1  0
 10 52  1  0
 14 53  1  0
 15 54  1  0
 17 55  1  0
 18 56  1  0
 18 57  1  0
 19 58  1  1
 21 59  1  0
 21 60  1  0
 22 61  1  0
 22 62  1  0
 25 63  1  0
 31 64  1  0
 32 65  1  0
 34 66  1  0
 35 67  1  0
 36 68  1  0
 36 69  1  0
 38 70  1  0
 38 71  1  0
 38 72  1  0
 39 73  1  0
 41 74  1  0
 41 75  1  0
 41 76  1  0
 42 77  1  0
 43 78  1  0
 43 79  1  0
 43 80  1  0
 44 81  1  0
 44 82  1  0
 44 83  1  0
 45 84  1  0
 45 85  1  0
 45 86  1  0
M  CHG  1  20   1
M  END
$$$$
