PDB_DB08912_94
     RDKit          3D

 55 58  0  0  0  0  0  0  0  0999 V2000
  -20.5770   -3.2080   15.6960 C   0  0  0  0  0  0  0  0  0  0  0  0
  -18.7540   -2.5670   14.3720 C   0  0  0  0  0  0  0  0  0  0  0  0
  -19.9860   -3.1060   14.5090 N   0  0  0  0  0  0  0  0  0  0  0  0
  -18.1250   -2.0900   15.5400 C   0  0  0  0  0  0  0  0  0  0  0  0
  -19.9940   -2.7810   16.8110 N   0  0  0  0  0  0  0  0  0  0  0  0
  -18.7810   -2.2300   16.7510 C   0  0  0  0  0  0  0  0  0  0  0  0
  -21.8250   -3.7790   15.7720 N   0  0  0  0  0  0  0  0  0  0  0  0
  -18.1840   -2.4570   13.0010 C   0  0  0  0  0  0  0  0  0  0  0  0
  -19.2200   -2.6830   11.5880 S   0  0  0  0  0  0  0  0  0  0  0  0
  -17.9130   -2.3880   10.5460 C   0  0  0  0  0  0  0  0  0  0  0  0
  -16.8480   -2.1340   11.2050 N   0  0  0  0  0  0  0  0  0  0  0  0
  -16.9120   -2.1440   12.5200 C   0  0  0  0  0  0  0  0  0  0  0  0
  -18.0090   -2.3830    9.0550 C   0  0  0  0  0  0  0  0  0  0  0  0
  -16.8470   -3.1790    8.4700 C   0  0  0  0  0  0  0  0  0  0  0  0
  -19.3550   -2.9800    8.6050 C   0  0  0  0  0  0  0  0  0  0  0  0
  -17.8870   -0.9110    8.6560 C   0  0  0  0  0  0  0  0  0  0  0  0
  -15.6670   -1.8780   13.2820 C   0  0  0  0  0  0  0  0  0  0  0  0
  -13.7760   -0.4720   13.8650 C   0  0  0  0  0  0  0  0  0  0  0  0
  -14.9650   -0.6670   13.1530 C   0  0  0  0  0  0  0  0  0  0  0  0
  -13.3170   -1.4940   14.7100 C   0  0  0  0  0  0  0  0  0  0  0  0
  -15.1730   -2.8890   14.1150 C   0  0  0  0  0  0  0  0  0  0  0  0
  -14.0110   -2.6900   14.8320 C   0  0  0  0  0  0  0  0  0  0  0  0
  -15.4350    0.3140   12.3480 F   0  0  0  0  0  0  0  0  0  0  0  0
  -13.1100    0.7660   13.7720 N   0  0  0  0  0  0  0  0  0  0  0  0
  -11.4820    1.0750   13.8920 S   0  0  0  0  0  0  0  0  0  0  0  0
  -11.3140    1.4570   15.6030 C   0  0  0  0  0  0  0  0  0  0  0  0
  -11.7530    3.0050   17.4100 C   0  0  0  0  0  0  0  0  0  0  0  0
  -11.8370    2.6460   16.0690 C   0  0  0  0  0  0  0  0  0  0  0  0
  -11.1400    2.1540   18.3070 C   0  0  0  0  0  0  0  0  0  0  0  0
  -10.7050    0.6020   16.5120 C   0  0  0  0  0  0  0  0  0  0  0  0
  -10.6190    0.9480   17.8620 C   0  0  0  0  0  0  0  0  0  0  0  0
  -10.1960   -0.5650   16.0870 F   0  0  0  0  0  0  0  0  0  0  0  0
  -12.4200    3.4690   15.1980 F   0  0  0  0  0  0  0  0  0  0  0  0
  -10.7040   -0.0690   13.5790 O   0  0  0  0  0  0  0  0  0  0  0  0
  -11.3030    2.2930   13.1870 O   0  0  0  0  0  0  0  0  0  0  0  0
  -17.1334   -1.6164   15.4901 H   0  0  0  0  0  0  0  0  0  0  0  0
  -18.2958   -1.8825   17.6750 H   0  0  0  0  0  0  0  0  0  0  0  0
  -22.2970   -3.8658   16.6834 H   0  0  0  0  0  0  0  0  0  0  0  0
  -22.2882   -4.1201   14.9176 H   0  0  0  0  0  0  0  0  0  0  0  0
  -16.2395   -3.5952    9.2871 H   0  0  0  0  0  0  0  0  0  0  0  0
  -17.2393   -3.9989    7.8505 H   0  0  0  0  0  0  0  0  0  0  0  0
  -16.2241   -2.5170    7.8505 H   0  0  0  0  0  0  0  0  0  0  0  0
  -19.9526   -3.2451    9.4896 H   0  0  0  0  0  0  0  0  0  0  0  0
  -19.9012   -2.2397    8.0019 H   0  0  0  0  0  0  0  0  0  0  0  0
  -19.1729   -3.8817    8.0019 H   0  0  0  0  0  0  0  0  0  0  0  0
  -17.8354   -0.2887    9.5616 H   0  0  0  0  0  0  0  0  0  0  0  0
  -16.9739   -0.7672    8.0598 H   0  0  0  0  0  0  0  0  0  0  0  0
  -18.7640   -0.6188    8.0598 H   0  0  0  0  0  0  0  0  0  0  0  0
  -12.3915   -1.3448   15.2855 H   0  0  0  0  0  0  0  0  0  0  0  0
  -15.7124   -3.8441   14.1981 H   0  0  0  0  0  0  0  0  0  0  0  0
  -13.6347   -3.4788   15.5000 H   0  0  0  0  0  0  0  0  0  0  0  0
  -13.7107    1.5865   13.6083 H   0  0  0  0  0  0  0  0  0  0  0  0
  -12.1728    3.9619   17.7537 H   0  0  0  0  0  0  0  0  0  0  0  0
  -11.0650    2.4306   19.3690 H   0  0  0  0  0  0  0  0  0  0  0  0
  -10.1369    0.2624   18.5744 H   0  0  0  0  0  0  0  0  0  0  0  0
  1  3  2  0
  2  3  1  0
  2  4  2  0
  1  5  1  0
  4  6  1  0
  5  6  2  0
  1  7  1  0
  2  8  1  0
  8  9  1  0
  9 10  1  0
 10 11  2  0
  8 12  2  0
 11 12  1  0
 10 13  1  0
 13 14  1  0
 13 15  1  0
 13 16  1  0
 12 17  1  0
 17 19  2  0
 18 19  1  0
 18 20  2  0
 17 21  1  0
 20 22  1  0
 21 22  2  0
 19 23  1  0
 18 24  1  0
 24 25  1  0
 25 26  1  0
 26 28  1  0
 27 28  2  0
 27 29  1  0
 26 30  2  0
 29 31  2  0
 30 31  1  0
 30 32  1  0
 28 33  1  0
 25 34  2  0
 25 35  2  0
  4 36  1  0
  6 37  1  0
  7 38  1  0
  7 39  1  0
 14 40  1  0
 14 41  1  0
 14 42  1  0
 15 43  1  0
 15 44  1  0
 15 45  1  0
 16 46  1  0
 16 47  1  0
 16 48  1  0
 20 49  1  0
 21 50  1  0
 22 51  1  0
 24 52  1  0
 27 53  1  0
 29 54  1  0
 31 55  1  0
M  END
$$$$
