PDB_DB04787_98
     RDKit          3D

 36 38  0  0  0  0  0  0  0  0999 V2000
   27.9100   -8.7070   13.2440 C   0  0  0  0  0  0  0  0  0  0  0  0
   27.0420   -7.6010   12.6150 C   0  0  0  0  0  0  0  0  0  0  0  0
   27.5070   -7.3030   11.2130 C   0  0  0  0  0  0  0  0  0  0  0  0
   27.2660   -8.1820   10.1470 C   0  0  0  0  0  0  0  0  0  0  0  0
   27.7170   -7.8830    8.8510 C   0  0  0  0  0  0  0  0  0  0  0  0
   28.4620   -6.7160    8.6060 C   0  0  0  0  0  0  0  0  0  0  0  0
   28.7080   -5.8390    9.6620 C   0  0  0  0  0  0  0  0  0  0  0  0
   28.2110   -6.1310   10.9450 C   0  0  0  0  0  0  0  0  0  0  0  0
   28.4590   -5.2270   11.9780 N   0  0  0  0  0  0  0  0  0  0  0  0
   28.0470   -5.4560   13.2670 C   0  0  0  0  0  0  0  0  0  0  0  0
   28.3710   -4.4440   14.5110 S   0  0  0  0  0  0  0  0  0  0  0  0
   27.3360   -6.5590   13.5750 O   0  0  0  0  0  0  0  0  0  0  0  0
   27.4520   -8.9030    7.8370 C   0  0  0  0  0  0  0  0  0  0  0  0
   26.3970   -9.8090    7.7550 C   0  0  0  0  0  0  0  0  0  0  0  0
   26.6740  -10.6270    6.6380 C   0  0  0  0  0  0  0  0  0  0  0  0
   27.8810  -10.2380    6.1080 C   0  0  0  0  0  0  0  0  0  0  0  0
   28.3410   -9.1820    6.8320 N   0  0  0  0  0  0  0  0  0  0  0  0
   29.6380   -8.5450    6.5510 C   0  0  0  0  0  0  0  0  0  0  0  0
   28.5950  -10.7450    4.9860 C   0  0  0  0  0  0  0  0  0  0  0  0
   29.2160  -11.1420    4.0840 N   0  0  0  0  0  0  0  0  0  0  0  0
   25.5470   -7.9140   12.6530 C   0  0  0  0  0  0  0  0  0  0  0  0
   27.8552   -8.6371   14.3404 H   0  0  0  0  0  0  0  0  0  0  0  0
   27.5408   -9.6914   12.9204 H   0  0  0  0  0  0  0  0  0  0  0  0
   28.9539   -8.5824   12.9204 H   0  0  0  0  0  0  0  0  0  0  0  0
   26.7167   -9.1176   10.3283 H   0  0  0  0  0  0  0  0  0  0  0  0
   28.8445   -6.4983    7.5979 H   0  0  0  0  0  0  0  0  0  0  0  0
   29.2895   -4.9209    9.4919 H   0  0  0  0  0  0  0  0  0  0  0  0
   28.9690   -4.3576   11.7661 H   0  0  0  0  0  0  0  0  0  0  0  0
   25.5261   -9.8739    8.4238 H   0  0  0  0  0  0  0  0  0  0  0  0
   26.0338  -11.4365    6.2574 H   0  0  0  0  0  0  0  0  0  0  0  0
   30.1388   -8.2991    7.4990 H   0  0  0  0  0  0  0  0  0  0  0  0
   30.2682   -9.2361    5.9720 H   0  0  0  0  0  0  0  0  0  0  0  0
   29.4763   -7.6238    5.9720 H   0  0  0  0  0  0  0  0  0  0  0  0
   25.2135   -7.9838   13.6989 H   0  0  0  0  0  0  0  0  0  0  0  0
   24.9916   -7.1127   12.1437 H   0  0  0  0  0  0  0  0  0  0  0  0
   25.3596   -8.8708   12.1437 H   0  0  0  0  0  0  0  0  0  0  0  0
  1  2  1  0
  2  3  1  0
  3  4  1  0
  4  5  2  0
  5  6  1  0
  6  7  2  0
  3  8  2  0
  7  8  1  0
  8  9  1  0
  9 10  1  0
 10 11  2  0
  2 12  1  0
 10 12  1  0
  5 13  1  0
 13 14  2  0
 14 15  1  0
 15 16  2  0
 13 17  1  0
 16 17  1  0
 17 18  1  0
 16 19  1  0
 19 20  3  0
  2 21  1  0
  1 22  1  0
  1 23  1  0
  1 24  1  0
  4 25  1  0
  6 26  1  0
  7 27  1  0
  9 28  1  0
 14 29  1  0
 15 30  1  0
 18 31  1  0
 18 32  1  0
 18 33  1  0
 21 34  1  0
 21 35  1  0
 21 36  1  0
M  END
$$$$
