PDB_DB00360_90
     RDKit          3D

 32 33  0  0  0  0  0  0  0  0999 V2000
   65.3140   23.0840 -177.9030 N   0  0  0  0  0  0  0  0  0  0  0  0
   65.1260   23.4980 -179.1800 C   0  0  0  0  0  0  0  0  0  0  0  0
   66.1690   24.0210 -179.8680 N   0  0  0  0  0  0  0  0  0  0  0  0
   63.9110   23.3890 -179.7680 N   0  0  0  0  0  0  0  0  0  0  0  0
   62.8690   22.8640 -179.1010 C   0  0  0  0  0  0  0  0  0  0  0  0
   61.7600   22.7740 -179.6770 O   0  0  0  0  0  0  0  0  0  0  0  0
   63.0530   22.4380 -177.7850 C   0  0  0  0  0  0  0  0  0  0  0  0
   64.2940   22.5610 -177.1920 C   0  0  0  0  0  0  0  0  0  0  0  0
   62.0490   21.9160 -177.0610 N   0  0  0  0  0  0  0  0  0  0  0  0
   64.5040   22.1650 -175.9130 N   0  0  0  0  0  0  0  0  0  0  0  0
   62.1270   22.1400 -175.6190 C   0  0  2  0  0  0  0  0  0  0  0  0
   63.4480   21.5960 -175.0890 C   0  0  0  0  0  0  0  0  0  0  0  0
   60.9130   21.5660 -174.8890 C   0  0  1  0  0  0  0  0  0  0  0  0
   60.5150   20.3590 -175.5540 O   0  0  0  0  0  0  0  0  0  0  0  0
   61.2150   21.2930 -173.4130 C   0  0  2  0  0  0  0  0  0  0  0  0
   60.0140   20.7010 -172.6800 C   0  0  0  0  0  0  0  0  0  0  0  0
   61.6260   22.5030 -172.7560 O   0  0  0  0  0  0  0  0  0  0  0  0
   66.0380   24.3389 -180.8389 H   0  0  0  0  0  0  0  0  0  0  0  0
   67.0931   24.1008 -179.4203 H   0  0  0  0  0  0  0  0  0  0  0  0
   63.7840   23.7122 -180.7377 H   0  0  0  0  0  0  0  0  0  0  0  0
   61.2749   21.3922 -177.4939 H   0  0  0  0  0  0  0  0  0  0  0  0
   65.4457   22.2706 -175.5093 H   0  0  0  0  0  0  0  0  0  0  0  0
   62.1034   23.2220 -175.4220 H   0  0  0  0  0  0  0  0  0  0  0  0
   63.4613   20.4986 -175.1627 H   0  0  0  0  0  0  0  0  0  0  0  0
   63.5873   21.8651 -174.0316 H   0  0  0  0  0  0  0  0  0  0  0  0
   60.0965   22.3027 -174.9151 H   0  0  0  0  0  0  0  0  0  0  0  0
   60.2879   19.6704 -174.8800 H   0  0  0  0  0  0  0  0  0  0  0  0
   62.0297   20.5546 -173.3820 H   0  0  0  0  0  0  0  0  0  0  0  0
   60.1722   20.7790 -171.5942 H   0  0  0  0  0  0  0  0  0  0  0  0
   59.1051   21.2543 -172.9588 H   0  0  0  0  0  0  0  0  0  0  0  0
   59.8993   19.6431 -172.9588 H   0  0  0  0  0  0  0  0  0  0  0  0
   61.5831   22.3768 -171.7750 H   0  0  0  0  0  0  0  0  0  0  0  0
  1  2  2  0
  2  3  1  0
  2  4  1  0
  4  5  1  0
  5  6  2  0
  5  7  1  0
  1  8  1  0
  7  8  2  0
  7  9  1  0
  8 10  1  0
  9 11  1  0
 10 12  1  0
 11 12  1  0
 11 13  1  0
 13 14  1  0
 13 15  1  0
 15 16  1  0
 15 17  1  0
  3 18  1  0
  3 19  1  0
  4 20  1  0
  9 21  1  0
 10 22  1  0
 11 23  1  6
 12 24  1  0
 12 25  1  0
 13 26  1  1
 14 27  1  0
 15 28  1  6
 16 29  1  0
 16 30  1  0
 16 31  1  0
 17 32  1  0
M  END
$$$$
