PDB_DB01016_97
     RDKit          3D

 61 63  0  0  0  0  0  0  0  0999 V2000
   65.9630  114.8940  124.0190 O   0  0  0  0  0  0  0  0  0  0  0  0
   65.3500  116.4350  126.1130 O   0  0  0  0  0  0  0  0  0  0  0  0
   67.5450  116.5940  127.6990 O   0  0  0  0  0  0  0  0  0  0  0  0
   63.6200  111.6730  129.9690 O   0  0  0  0  0  0  0  0  0  0  0  0
   63.4770  108.1880  135.2290 Cl  0  0  0  0  0  0  0  0  0  0  0  0
   66.7840  115.7270  126.5190 S   0  0  0  0  0  0  0  0  0  0  0  0
   62.7620  113.0670  131.9270 O   0  0  0  0  0  0  0  0  0  0  0  0
   67.8150  115.0520  122.6830 N   0  0  0  0  0  0  0  0  0  0  0  0
   67.7720  115.6520  125.1380 N   0  0  0  0  0  0  0  0  0  0  0  0
   64.2890  109.4990  130.0710 N   0  0  0  0  0  0  0  0  0  0  0  0
   67.0680  114.5660  121.5230 C   0  0  0  0  0  0  0  0  0  0  0  0
   66.3790  113.2610  121.9100 C   0  0  0  0  0  0  0  0  0  0  0  0
   68.0310  114.3570  120.3610 C   0  0  0  0  0  0  0  0  0  0  0  0
   65.6680  112.6170  120.7280 C   0  0  0  0  0  0  0  0  0  0  0  0
   67.3010  113.7440  119.1750 C   0  0  0  0  0  0  0  0  0  0  0  0
   66.6180  112.4290  119.5510 C   0  0  0  0  0  0  0  0  0  0  0  0
   67.1090  115.1800  123.9420 C   0  0  0  0  0  0  0  0  0  0  0  0
   66.5250  114.0200  127.0840 C   0  0  0  0  0  0  0  0  0  0  0  0
   66.1960  111.4150  127.9620 C   0  0  0  0  0  0  0  0  0  0  0  0
   66.0560  109.9790  128.4620 C   0  0  0  0  0  0  0  0  0  0  0  0
   65.3510  113.3370  126.8090 C   0  0  0  0  0  0  0  0  0  0  0  0
   67.5310  113.3980  127.7910 C   0  0  0  0  0  0  0  0  0  0  0  0
   65.1850  112.0320  127.2490 C   0  0  0  0  0  0  0  0  0  0  0  0
   67.3650  112.0970  128.2280 C   0  0  0  0  0  0  0  0  0  0  0  0
   64.6150  109.5320  128.6620 C   0  0  0  0  0  0  0  0  0  0  0  0
   63.7590  110.7160  130.6540 C   0  0  0  0  0  0  0  0  0  0  0  0
   63.3990  110.7620  132.1340 C   0  0  0  0  0  0  0  0  0  0  0  0
   62.9240  111.9210  132.7050 C   0  0  0  0  0  0  0  0  0  0  0  0
   63.5640  109.6310  132.9030 C   0  0  0  0  0  0  0  0  0  0  0  0
   62.6110  111.9500  134.0500 C   0  0  0  0  0  0  0  0  0  0  0  0
   63.2530  109.6570  134.2450 C   0  0  0  0  0  0  0  0  0  0  0  0
   62.7750  110.8170  134.8230 C   0  0  0  0  0  0  0  0  0  0  0  0
   63.9630  113.7420  131.6780 C   0  0  0  0  0  0  0  0  0  0  0  0
   68.8128  115.2959  122.6072 H   0  0  0  0  0  0  0  0  0  0  0  0
   68.7660  115.9218  125.1516 H   0  0  0  0  0  0  0  0  0  0  0  0
   64.4273  108.6484  130.6351 H   0  0  0  0  0  0  0  0  0  0  0  0
   66.3056  115.2944  121.2097 H   0  0  0  0  0  0  0  0  0  0  0  0
   67.1355  112.5606  122.2935 H   0  0  0  0  0  0  0  0  0  0  0  0
   65.6235  113.4907  122.6758 H   0  0  0  0  0  0  0  0  0  0  0  0
   68.4568  115.3266  120.0635 H   0  0  0  0  0  0  0  0  0  0  0  0
   68.8335  113.6752  120.6790 H   0  0  0  0  0  0  0  0  0  0  0  0
   65.2780  111.6353  121.0350 H   0  0  0  0  0  0  0  0  0  0  0  0
   64.8475  113.2780  120.4120 H   0  0  0  0  0  0  0  0  0  0  0  0
   66.5387  114.4531  118.8201 H   0  0  0  0  0  0  0  0  0  0  0  0
   68.0402  113.5342  118.3879 H   0  0  0  0  0  0  0  0  0  0  0  0
   67.3866  111.6912  119.8248 H   0  0  0  0  0  0  0  0  0  0  0  0
   66.0352  112.0799  118.6859 H   0  0  0  0  0  0  0  0  0  0  0  0
   66.5273  109.3093  127.7276 H   0  0  0  0  0  0  0  0  0  0  0  0
   66.5428  109.9358  129.4475 H   0  0  0  0  0  0  0  0  0  0  0  0
   64.5490  113.8308  126.2406 H   0  0  0  0  0  0  0  0  0  0  0  0
   68.4655  113.9363  128.0075 H   0  0  0  0  0  0  0  0  0  0  0  0
   64.2527  111.4903  127.0315 H   0  0  0  0  0  0  0  0  0  0  0  0
   68.1702  111.6027  128.7913 H   0  0  0  0  0  0  0  0  0  0  0  0
   64.4849  108.5262  128.2361 H   0  0  0  0  0  0  0  0  0  0  0  0
   63.9465  110.2451  128.1573 H   0  0  0  0  0  0  0  0  0  0  0  0
   63.9445  108.7060  132.4451 H   0  0  0  0  0  0  0  0  0  0  0  0
   62.2308  112.8761  134.5059 H   0  0  0  0  0  0  0  0  0  0  0  0
   62.5260  110.8384  135.8942 H   0  0  0  0  0  0  0  0  0  0  0  0
   64.4383  114.0092  132.6333 H   0  0  0  0  0  0  0  0  0  0  0  0
   64.6372  113.0906  131.1025 H   0  0  0  0  0  0  0  0  0  0  0  0
   63.7571  114.6566  131.1025 H   0  0  0  0  0  0  0  0  0  0  0  0
  2  6  2  0
  3  6  2  0
  6  9  1  0
  8 11  1  0
 11 12  1  0
 11 13  1  0
 12 14  1  0
 13 15  1  0
 14 16  1  0
 15 16  1  0
  1 17  2  0
  8 17  1  0
  9 17  1  0
  6 18  1  0
 19 20  1  0
 18 21  2  0
 18 22  1  0
 19 23  2  0
 21 23  1  0
 19 24  1  0
 22 24  2  0
 10 25  1  0
 20 25  1  0
  4 26  2  0
 10 26  1  0
 26 27  1  0
  7 28  1  0
 27 28  2  0
 27 29  1  0
 28 30  1  0
  5 31  1  0
 29 31  2  0
 30 32  2  0
 31 32  1  0
  7 33  1  0
  8 34  1  0
  9 35  1  0
 10 36  1  0
 11 37  1  0
 12 38  1  0
 12 39  1  0
 13 40  1  0
 13 41  1  0
 14 42  1  0
 14 43  1  0
 15 44  1  0
 15 45  1  0
 16 46  1  0
 16 47  1  0
 20 48  1  0
 20 49  1  0
 21 50  1  0
 22 51  1  0
 23 52  1  0
 24 53  1  0
 25 54  1  0
 25 55  1  0
 29 56  1  0
 30 57  1  0
 32 58  1  0
 33 59  1  0
 33 60  1  0
 33 61  1  0
M  END
$$$$
