PDB_DB08881_95
     RDKit          3D

 51 54  0  0  0  0  0  0  0  0999 V2000
   49.4650   77.7310  -24.9610 C   0  0  0  0  0  0  0  0  0  0  0  0
   51.2280   77.7880  -33.5030 C   0  0  0  0  0  0  0  0  0  0  0  0
   51.1300   75.4590  -32.6450 C   0  0  0  0  0  0  0  0  0  0  0  0
   50.8610   74.2710  -34.8260 C   0  0  0  0  0  0  0  0  0  0  0  0
   51.3370   73.8160  -36.0550 C   0  0  0  0  0  0  0  0  0  0  0  0
   52.6720   73.9530  -36.3830 C   0  0  0  0  0  0  0  0  0  0  0  0
   53.0010   75.0320  -34.2870 C   0  0  0  0  0  0  0  0  0  0  0  0
   50.2470   78.3980  -29.1000 C   0  0  0  0  0  0  0  0  0  0  0  0
   50.3460   79.6970  -29.5900 C   0  0  0  0  0  0  0  0  0  0  0  0
   50.6130   80.0180  -30.8600 N   0  0  0  0  0  0  0  0  0  0  0  0
   50.4430   77.3300  -29.9910 C   0  0  0  0  0  0  0  0  0  0  0  0
   51.1280   79.0370  -33.0060 N   0  0  0  0  0  0  0  0  0  0  0  0
   51.0180   76.8700  -32.5090 C   0  0  0  0  0  0  0  0  0  0  0  0
   50.7470   77.6270  -31.3200 C   0  0  0  0  0  0  0  0  0  0  0  0
   50.8170   78.9760  -31.6770 C   0  0  0  0  0  0  0  0  0  0  0  0
   49.9560   78.1690  -27.6640 C   0  0  0  0  0  0  0  0  0  0  0  0
   51.6770   74.9050  -33.9130 C   0  0  0  0  0  0  0  0  0  0  0  0
   53.5150   74.5700  -35.4860 C   0  0  0  0  0  0  0  0  0  0  0  0
   53.8300   75.6260  -33.4370 F   0  0  0  0  0  0  0  0  0  0  0  0
   49.5510   74.1330  -34.5540 F   0  0  0  0  0  0  0  0  0  0  0  0
   50.3810   73.2870  -36.9600 N   0  0  0  0  0  0  0  0  0  0  0  0
   50.5680   72.7440  -38.4800 S   0  0  0  0  0  0  0  0  0  0  0  0
   49.3060   72.2200  -38.8620 O   0  0  0  0  0  0  0  0  0  0  0  0
   51.7040   71.8960  -38.4560 O   0  0  0  0  0  0  0  0  0  0  0  0
   51.0260   74.1670  -39.4080 C   0  0  0  0  0  0  0  0  0  0  0  0
   49.9960   75.1060  -39.5460 C   0  0  0  0  0  0  0  0  0  0  0  0
   50.6180   76.2890  -40.2050 C   0  0  0  0  0  0  0  0  0  0  0  0
   49.1350   77.1250  -27.2450 C   0  0  0  0  0  0  0  0  0  0  0  0
   48.8910   76.8980  -25.8990 C   0  0  0  0  0  0  0  0  0  0  0  0
   50.2510   78.7840  -25.3370 C   0  0  0  0  0  0  0  0  0  0  0  0
   50.5020   78.9960  -26.6820 C   0  0  0  0  0  0  0  0  0  0  0  0
   49.2510   77.3900  -23.2470 Cl  0  0  0  0  0  0  0  0  0  0  0  0
   50.8120   74.6910  -31.7830 O   0  0  0  0  0  0  0  0  0  0  0  0
   51.4462   77.5424  -34.5528 H   0  0  0  0  0  0  0  0  0  0  0  0
   53.0545   73.5761  -37.3430 H   0  0  0  0  0  0  0  0  0  0  0  0
   50.1930   80.5218  -28.8785 H   0  0  0  0  0  0  0  0  0  0  0  0
   50.3591   76.2875  -29.6502 H   0  0  0  0  0  0  0  0  0  0  0  0
   51.2650   79.9039  -33.5451 H   0  0  0  0  0  0  0  0  0  0  0  0
   54.5828   74.6940  -35.7193 H   0  0  0  0  0  0  0  0  0  0  0  0
   49.4183   73.2398  -36.5969 H   0  0  0  0  0  0  0  0  0  0  0  0
   51.8734   74.6531  -38.9024 H   0  0  0  0  0  0  0  0  0  0  0  0
   51.2827   73.8211  -40.4202 H   0  0  0  0  0  0  0  0  0  0  0  0
   49.1870   74.6996  -40.1708 H   0  0  0  0  0  0  0  0  0  0  0  0
   49.5513   75.3681  -38.5746 H   0  0  0  0  0  0  0  0  0  0  0  0
   50.9845   76.9860  -39.4370 H   0  0  0  0  0  0  0  0  0  0  0  0
   51.4593   75.9591  -40.8322 H   0  0  0  0  0  0  0  0  0  0  0  0
   49.8694   76.7951  -40.8322 H   0  0  0  0  0  0  0  0  0  0  0  0
   48.6714   76.4682  -27.9958 H   0  0  0  0  0  0  0  0  0  0  0  0
   48.2475   76.0637  -25.5829 H   0  0  0  0  0  0  0  0  0  0  0  0
   50.6797   79.4560  -24.5790 H   0  0  0  0  0  0  0  0  0  0  0  0
   51.1463   79.8352  -26.9830 H   0  0  0  0  0  0  0  0  0  0  0  0
  4  5  2  0
  5  6  1  0
  8  9  2  0
  9 10  1  0
  8 11  1  0
  2 12  1  0
  2 13  2  0
  3 13  1  0
 11 14  2  0
 13 14  1  0
 10 15  2  0
 12 15  1  0
 14 15  1  0
  8 16  1  0
  3 17  1  0
  4 17  1  0
  7 17  2  0
  6 18  2  0
  7 18  1  0
  7 19  1  0
  4 20  1  0
  5 21  1  0
 21 22  1  0
 22 23  2  0
 22 24  2  0
 22 25  1  0
 25 26  1  0
 26 27  1  0
 16 28  2  0
  1 29  2  0
 28 29  1  0
  1 30  1  0
 16 31  1  0
 30 31  2  0
  1 32  1  0
  3 33  2  0
  2 34  1  0
  6 35  1  0
  9 36  1  0
 11 37  1  0
 12 38  1  0
 18 39  1  0
 21 40  1  0
 25 41  1  0
 25 42  1  0
 26 43  1  0
 26 44  1  0
 27 45  1  0
 27 46  1  0
 27 47  1  0
 28 48  1  0
 29 49  1  0
 30 50  1  0
 31 51  1  0
M  END
$$$$
