PDB_DB01229_94
     RDKit          3D

113119  0  0  0  0  0  0  0  0999 V2000
  -26.5840  -34.3960 -111.3810 O   0  0  0  0  0  0  0  0  0  0  0  0
  -26.3790  -34.1230 -109.9830 C   0  0  1  0  0  0  0  0  0  0  0  0
  -25.6440  -32.6690 -109.9090 C   0  0  1  0  0  0  0  0  0  0  0  0
  -26.6380  -31.7910 -110.5680 O   0  0  0  0  0  0  0  0  0  0  0  0
  -26.3450  -31.2960 -111.8590 C   0  0  0  0  0  0  0  0  0  0  0  0
  -25.3120  -31.5190 -112.4450 O   0  0  0  0  0  0  0  0  0  0  0  0
  -27.3990  -30.4710 -112.3900 C   0  0  0  0  0  0  0  0  0  0  0  0
  -28.0890  -29.4270 -111.7600 C   0  0  0  0  0  0  0  0  0  0  0  0
  -29.0960  -28.7500 -112.4980 C   0  0  0  0  0  0  0  0  0  0  0  0
  -29.4530  -28.9700 -113.6790 C   0  0  0  0  0  0  0  0  0  0  0  0
  -28.8040  -30.0160 -114.3960 C   0  0  0  0  0  0  0  0  0  0  0  0
  -27.7200  -30.8350 -113.7700 C   0  0  0  0  0  0  0  0  0  0  0  0
  -25.3130  -32.0300 -108.4550 C   0  0  2  0  0  0  0  0  0  0  0  0
  -25.6860  -30.4690 -108.3130 C   0  0  2  0  0  0  0  0  0  0  0  0
  -27.1470  -30.2240 -108.4540 O   0  0  0  0  0  0  0  0  0  0  0  0
  -28.0570  -30.6570 -107.5180 C   0  0  0  0  0  0  0  0  0  0  0  0
  -27.7920  -31.2610 -106.5210 O   0  0  0  0  0  0  0  0  0  0  0  0
  -29.4470  -30.2400 -107.9450 C   0  0  0  0  0  0  0  0  0  0  0  0
  -25.0930  -29.4380 -109.3080 C   0  0  0  0  0  0  0  0  0  0  0  0
  -24.4870  -28.6550 -108.2550 O   0  0  0  0  0  0  0  0  0  0  0  0
  -25.0010  -29.5590 -107.2540 C   0  0  2  0  0  0  0  0  0  0  0  0
  -23.8630  -30.1710 -106.3720 C   0  0  0  0  0  0  0  0  0  0  0  0
  -23.7920  -31.6910 -106.4180 C   0  0  2  0  0  0  0  0  0  0  0  0
  -22.6790  -32.1450 -105.6060 O   0  0  0  0  0  0  0  0  0  0  0  0
  -23.7360  -32.2780 -107.9110 C   0  0  2  0  0  0  0  0  0  0  0  0
  -22.6550  -31.5060 -108.7250 C   0  0  0  0  0  0  0  0  0  0  0  0
  -23.1630  -33.7950 -107.8850 C   0  0  0  0  0  0  0  0  0  0  0  0
  -22.0910  -34.0280 -108.4190 O   0  0  0  0  0  0  0  0  0  0  0  0
  -23.9290  -34.9500 -107.2270 C   0  0  2  0  0  0  0  0  0  0  0  0
  -23.1240  -36.1910 -107.4120 O   0  0  0  0  0  0  0  0  0  0  0  0
  -22.5440  -36.8090 -106.3220 C   0  0  0  0  0  0  0  0  0  0  0  0
  -22.6260  -36.4350 -105.1930 O   0  0  0  0  0  0  0  0  0  0  0  0
  -21.7810  -38.0310 -106.7560 C   0  0  0  0  0  0  0  0  0  0  0  0
  -25.3240  -35.0840 -107.8430 C   0  0  0  0  0  0  0  0  0  0  0  0
  -26.4470  -34.8590 -107.0520 C   0  0  0  0  0  0  0  0  0  0  0  0
  -27.8200  -34.8550 -107.7910 C   0  0  1  0  0  0  0  0  0  0  0  0
  -28.9200  -34.2620 -107.0150 O   0  0  0  0  0  0  0  0  0  0  0  0
  -29.6770  -35.0760 -106.2930 C   0  0  0  0  0  0  0  0  0  0  0  0
  -29.5730  -36.2590 -106.1840 O   0  0  0  0  0  0  0  0  0  0  0  0
  -30.7950  -34.2740 -105.5770 C   0  0  2  0  0  0  0  0  0  0  0  0
  -31.5980  -35.1900 -104.8590 O   0  0  0  0  0  0  0  0  0  0  0  0
  -31.5900  -33.4860 -106.6480 C   0  0  1  0  0  0  0  0  0  0  0  0
  -31.9970  -34.4460 -107.6680 N   0  0  0  0  0  0  0  0  0  0  0  0
  -32.2320  -34.1020 -108.9550 C   0  0  0  0  0  0  0  0  0  0  0  0
  -32.1380  -32.9520 -109.3700 O   0  0  0  0  0  0  0  0  0  0  0  0
  -32.5840  -35.2490 -109.8350 C   0  0  0  0  0  0  0  0  0  0  0  0
  -33.7000  -36.0630 -109.6410 C   0  0  0  0  0  0  0  0  0  0  0  0
  -33.9750  -37.1500 -110.5130 C   0  0  0  0  0  0  0  0  0  0  0  0
  -33.0970  -37.4180 -111.5990 C   0  0  0  0  0  0  0  0  0  0  0  0
  -31.9860  -36.6160 -111.7990 C   0  0  0  0  0  0  0  0  0  0  0  0
  -31.7060  -35.5430 -110.9470 C   0  0  0  0  0  0  0  0  0  0  0  0
  -32.7570  -32.6980 -106.0170 C   0  0  0  0  0  0  0  0  0  0  0  0
  -32.5180  -31.3680 -105.6270 C   0  0  0  0  0  0  0  0  0  0  0  0
  -33.5480  -30.5910 -105.0340 C   0  0  0  0  0  0  0  0  0  0  0  0
  -34.8200  -31.1550 -104.8370 C   0  0  0  0  0  0  0  0  0  0  0  0
  -35.0610  -32.4620 -105.2200 C   0  0  0  0  0  0  0  0  0  0  0  0
  -34.0320  -33.2490 -105.8150 C   0  0  0  0  0  0  0  0  0  0  0  0
  -27.7430  -34.0440 -109.1420 C   0  0  0  0  0  0  0  0  0  0  0  0
  -26.4490  -34.5260 -105.5650 C   0  0  0  0  0  0  0  0  0  0  0  0
  -25.4810  -35.3950 -109.4110 C   0  0  0  0  0  0  0  0  0  0  0  0
  -26.2170  -36.8020 -109.5850 C   0  0  0  0  0  0  0  0  0  0  0  0
  -24.2050  -35.5750 -110.2640 C   0  0  0  0  0  0  0  0  0  0  0  0
  -27.1755  -35.1837 -111.4801 H   0  0  0  0  0  0  0  0  0  0  0  0
  -24.6425  -32.7729 -110.3519 H   0  0  0  0  0  0  0  0  0  0  0  0
  -27.8575  -29.1400 -110.7237 H   0  0  0  0  0  0  0  0  0  0  0  0
  -29.6230  -27.9397 -111.9729 H   0  0  0  0  0  0  0  0  0  0  0  0
  -30.2467  -28.3711 -114.1496 H   0  0  0  0  0  0  0  0  0  0  0  0
  -29.1066  -30.2260 -115.4325 H   0  0  0  0  0  0  0  0  0  0  0  0
  -27.2051  -31.6466 -114.3050 H   0  0  0  0  0  0  0  0  0  0  0  0
  -25.9851  -32.6057 -107.8017 H   0  0  0  0  0  0  0  0  0  0  0  0
  -30.0643  -30.0548 -107.0536 H   0  0  0  0  0  0  0  0  0  0  0  0
  -29.3856  -29.3207 -108.5460 H   0  0  0  0  0  0  0  0  0  0  0  0
  -29.9018  -31.0412 -108.5460 H   0  0  0  0  0  0  0  0  0  0  0  0
  -24.3617  -29.8737 -110.0047 H   0  0  0  0  0  0  0  0  0  0  0  0
  -25.7687  -28.9380 -110.0175 H   0  0  0  0  0  0  0  0  0  0  0  0
  -25.6486  -29.2065 -106.4377 H   0  0  0  0  0  0  0  0  0  0  0  0
  -22.9006  -29.7692 -106.7218 H   0  0  0  0  0  0  0  0  0  0  0  0
  -24.0847  -29.8946 -105.3306 H   0  0  0  0  0  0  0  0  0  0  0  0
  -24.7278  -32.0871 -105.9968 H   0  0  0  0  0  0  0  0  0  0  0  0
  -22.9096  -32.0509 -104.6478 H   0  0  0  0  0  0  0  0  0  0  0  0
  -21.9596  -31.0094 -108.0323 H   0  0  0  0  0  0  0  0  0  0  0  0
  -22.0991  -32.2127 -109.3587 H   0  0  0  0  0  0  0  0  0  0  0  0
  -23.1430  -30.7509 -109.3587 H   0  0  0  0  0  0  0  0  0  0  0  0
  -24.0729  -34.7620 -106.1528 H   0  0  0  0  0  0  0  0  0  0  0  0
  -21.4366  -38.5825 -105.8688 H   0  0  0  0  0  0  0  0  0  0  0  0
  -22.4361  -38.6776 -107.3583 H   0  0  0  0  0  0  0  0  0  0  0  0
  -20.9124  -37.7262 -107.3583 H   0  0  0  0  0  0  0  0  0  0  0  0
  -28.0316  -35.9211 -107.9602 H   0  0  0  0  0  0  0  0  0  0  0  0
  -30.3940  -33.5436 -104.8589 H   0  0  0  0  0  0  0  0  0  0  0  0
  -31.4730  -35.0474 -103.8873 H   0  0  0  0  0  0  0  0  0  0  0  0
  -30.9720  -32.7095 -107.1225 H   0  0  0  0  0  0  0  0  0  0  0  0
  -32.1109  -35.4327 -107.3954 H   0  0  0  0  0  0  0  0  0  0  0  0
  -34.3781  -35.8598 -108.7991 H   0  0  0  0  0  0  0  0  0  0  0  0
  -34.8614  -37.7804 -110.3493 H   0  0  0  0  0  0  0  0  0  0  0  0
  -33.2997  -38.2595 -112.2779 H   0  0  0  0  0  0  0  0  0  0  0  0
  -31.3121  -36.8265 -112.6425 H   0  0  0  0  0  0  0  0  0  0  0  0
  -30.8160  -34.9209 -111.1226 H   0  0  0  0  0  0  0  0  0  0  0  0
  -31.5232  -30.9253 -105.7829 H   0  0  0  0  0  0  0  0  0  0  0  0
  -33.3511  -29.5523 -104.7302 H   0  0  0  0  0  0  0  0  0  0  0  0
  -35.6225  -30.5581 -104.3790 H   0  0  0  0  0  0  0  0  0  0  0  0
  -36.0582  -32.8992 -105.0637 H   0  0  0  0  0  0  0  0  0  0  0  0
  -34.2370  -34.2871 -106.1155 H   0  0  0  0  0  0  0  0  0  0  0  0
  -27.9189  -32.9854 -108.9001 H   0  0  0  0  0  0  0  0  0  0  0  0
  -28.4971  -34.5131 -109.7910 H   0  0  0  0  0  0  0  0  0  0  0  0
  -26.4434  -35.4579 -104.9806 H   0  0  0  0  0  0  0  0  0  0  0  0
  -25.5544  -33.9345 -105.3205 H   0  0  0  0  0  0  0  0  0  0  0  0
  -27.3506  -33.9453 -105.3205 H   0  0  0  0  0  0  0  0  0  0  0  0
  -26.4383  -37.2251 -108.5940 H   0  0  0  0  0  0  0  0  0  0  0  0
  -27.1556  -36.6586 -110.1404 H   0  0  0  0  0  0  0  0  0  0  0  0
  -25.5639  -37.4912 -110.1404 H   0  0  0  0  0  0  0  0  0  0  0  0
  -23.3354  -35.6977 -109.6016 H   0  0  0  0  0  0  0  0  0  0  0  0
  -24.3111  -36.4671 -110.8988 H   0  0  0  0  0  0  0  0  0  0  0  0
  -24.0602  -34.6884 -110.8988 H   0  0  0  0  0  0  0  0  0  0  0  0
  2  1  1  6
  2  3  1  0
  3  4  1  0
  4  5  1  0
  5  6  2  0
  5  7  1  0
  7  8  2  0
  8  9  1  0
  9 10  2  0
 10 11  1  0
  7 12  1  0
 11 12  2  0
  3 13  1  0
 13 14  1  0
 14 15  1  1
 15 16  1  0
 16 17  2  0
 16 18  1  0
 14 19  1  0
 19 20  1  0
 14 21  1  0
 20 21  1  0
 21 22  1  0
 22 23  1  0
 23 24  1  0
 13 25  1  0
 23 25  1  0
 25 26  1  6
 25 27  1  0
 27 28  2  0
 27 29  1  0
 29 30  1  0
 30 31  1  0
 31 32  2  0
 31 33  1  0
 29 34  1  0
 34 35  2  0
 35 36  1  0
 36 37  1  0
 37 38  1  0
 38 39  2  0
 38 40  1  0
 40 41  1  0
 40 42  1  0
 42 43  1  0
 43 44  1  0
 44 45  2  0
 44 46  1  0
 46 47  2  0
 47 48  1  0
 48 49  2  0
 49 50  1  0
 46 51  1  0
 50 51  2  0
 42 52  1  0
 52 53  2  0
 53 54  1  0
 54 55  2  0
 55 56  1  0
 52 57  1  0
 56 57  2  0
  2 58  1  0
 36 58  1  0
 35 59  1  0
  2 60  1  0
 34 60  1  0
 60 61  1  0
 60 62  1  0
  1 63  1  0
  3 64  1  6
  8 65  1  0
  9 66  1  0
 10 67  1  0
 11 68  1  0
 12 69  1  0
 13 70  1  1
 18 71  1  0
 18 72  1  0
 18 73  1  0
 19 74  1  0
 19 75  1  0
 21 76  1  1
 22 77  1  0
 22 78  1  0
 23 79  1  1
 24 80  1  0
 26 81  1  0
 26 82  1  0
 26 83  1  0
 29 84  1  1
 33 85  1  0
 33 86  1  0
 33 87  1  0
 36 88  1  6
 40 89  1  1
 41 90  1  0
 42 91  1  6
 43 92  1  0
 47 93  1  0
 48 94  1  0
 49 95  1  0
 50 96  1  0
 51 97  1  0
 53 98  1  0
 54 99  1  0
 55100  1  0
 56101  1  0
 57102  1  0
 58103  1  0
 58104  1  0
 59105  1  0
 59106  1  0
 59107  1  0
 61108  1  0
 61109  1  0
 61110  1  0
 62111  1  0
 62112  1  0
 62113  1  0
M  END
$$$$
