PDB_DB01050_96
     RDKit          3D

 33 33  0  0  0  0  0  0  0  0999 V2000
   16.7860   12.7470   67.1980 C   0  0  0  0  0  0  0  0  0  0  0  0
   22.2020   16.2470   68.5650 C   0  0  0  0  0  0  0  0  0  0  0  0
   21.6170   17.6480   68.6470 C   0  0  0  0  0  0  0  0  0  0  0  0
   20.8570   17.8130   69.9640 C   0  0  0  0  0  0  0  0  0  0  0  0
   22.7630   18.6450   68.6670 C   0  0  0  0  0  0  0  0  0  0  0  0
   18.1420   12.1640   67.5260 C   0  0  1  0  0  0  0  0  0  0  0  0
   18.5670   11.1080   66.5250 C   0  0  0  0  0  0  0  0  0  0  0  0
   19.1910   13.2400   67.7370 C   0  0  0  0  0  0  0  0  0  0  0  0
   19.6020   13.5080   69.0340 C   0  0  0  0  0  0  0  0  0  0  0  0
   20.5610   14.4660   69.3180 C   0  0  0  0  0  0  0  0  0  0  0  0
   21.1350   15.1900   68.2720 C   0  0  0  0  0  0  0  0  0  0  0  0
   20.7360   14.9100   66.9770 C   0  0  0  0  0  0  0  0  0  0  0  0
   19.7670   13.9470   66.6820 C   0  0  0  0  0  0  0  0  0  0  0  0
   15.8440   12.7460   68.0770 O   0  0  0  0  0  0  0  0  0  0  0  0
   16.6250   13.2390   66.0380 O   0  0  0  0  0  0  0  0  0  0  0  0
   22.9534   16.2236   67.7620 H   0  0  0  0  0  0  0  0  0  0  0  0
   22.6509   16.0114   69.5412 H   0  0  0  0  0  0  0  0  0  0  0  0
   20.9465   17.8122   67.7906 H   0  0  0  0  0  0  0  0  0  0  0  0
   21.5475   17.6631   70.8071 H   0  0  0  0  0  0  0  0  0  0  0  0
   20.4290   18.8250   70.0161 H   0  0  0  0  0  0  0  0  0  0  0  0
   20.0479   17.0696   70.0161 H   0  0  0  0  0  0  0  0  0  0  0  0
   23.0293   18.8767   69.7088 H   0  0  0  0  0  0  0  0  0  0  0  0
   23.6343   18.2125   68.1533 H   0  0  0  0  0  0  0  0  0  0  0  0
   22.4553   19.5677   68.1533 H   0  0  0  0  0  0  0  0  0  0  0  0
   18.0442   11.6441   68.4904 H   0  0  0  0  0  0  0  0  0  0  0  0
   18.9255   10.2172   67.0617 H   0  0  0  0  0  0  0  0  0  0  0  0
   17.7088   10.8349   65.8935 H   0  0  0  0  0  0  0  0  0  0  0  0
   19.3752   11.5056   65.8935 H   0  0  0  0  0  0  0  0  0  0  0  0
   19.1523   12.9420   69.8631 H   0  0  0  0  0  0  0  0  0  0  0  0
   20.8672   14.6544   70.3576 H   0  0  0  0  0  0  0  0  0  0  0  0
   21.1989   15.4663   66.1485 H   0  0  0  0  0  0  0  0  0  0  0  0
   19.4658   13.7514   65.6423 H   0  0  0  0  0  0  0  0  0  0  0  0
   14.9589   13.1296   67.8545 H   0  0  0  0  0  0  0  0  0  0  0  0
  2  3  1  0
  3  4  1  0
  3  5  1  0
  1  6  1  0
  6  7  1  0
  6  8  1  0
  8  9  2  0
  9 10  1  0
  2 11  1  0
 10 11  2  0
 11 12  1  0
  8 13  1  0
 12 13  2  0
  1 14  1  0
  1 15  2  0
  2 16  1  0
  2 17  1  0
  3 18  1  0
  4 19  1  0
  4 20  1  0
  4 21  1  0
  5 22  1  0
  5 23  1  0
  5 24  1  0
  6 25  1  1
  7 26  1  0
  7 27  1  0
  7 28  1  0
  9 29  1  0
 10 30  1  0
 12 31  1  0
 13 32  1  0
 14 33  1  0
M  END
$$$$
