PDB_DB00360_95
     RDKit          3D

 32 33  0  0  0  0  0  0  0  0999 V2000
   28.6200  225.4330   16.4370 N   0  0  0  0  0  0  0  0  0  0  0  0
   29.1600  224.7980   15.3770 C   0  0  0  0  0  0  0  0  0  0  0  0
   28.4380  224.6450   14.2290 N   0  0  0  0  0  0  0  0  0  0  0  0
   30.4300  224.3350   15.4460 N   0  0  0  0  0  0  0  0  0  0  0  0
   31.1750  224.4810   16.5640 C   0  0  0  0  0  0  0  0  0  0  0  0
   32.3470  224.0290   16.5940 O   0  0  0  0  0  0  0  0  0  0  0  0
   30.6300  225.1120   17.6680 C   0  0  0  0  0  0  0  0  0  0  0  0
   29.3300  225.5900   17.5810 C   0  0  0  0  0  0  0  0  0  0  0  0
   31.3270  225.2730   18.8180 N   0  0  0  0  0  0  0  0  0  0  0  0
   28.7460  226.2160   18.6290 N   0  0  0  0  0  0  0  0  0  0  0  0
   30.5400  225.4080   20.0310 C   0  0  2  0  0  0  0  0  0  0  0  0
   29.4730  226.4910   19.8620 C   0  0  0  0  0  0  0  0  0  0  0  0
   31.4280  225.7070   21.2440 C   0  0  1  0  0  0  0  0  0  0  0  0
   32.2730  226.8270   20.9680 O   0  0  0  0  0  0  0  0  0  0  0  0
   30.5930  226.0080   22.4900 C   0  0  2  0  0  0  0  0  0  0  0  0
   31.4990  226.1190   23.7220 C   0  0  0  0  0  0  0  0  0  0  0  0
   29.6690  224.9240   22.6700 O   0  0  0  0  0  0  0  0  0  0  0  0
   28.8526  224.1596   13.4207 H   0  0  0  0  0  0  0  0  0  0  0  0
   27.4785  225.0149   14.1709 H   0  0  0  0  0  0  0  0  0  0  0  0
   30.8379  223.8606   14.6278 H   0  0  0  0  0  0  0  0  0  0  0  0
   32.3566  225.2983   18.8315 H   0  0  0  0  0  0  0  0  0  0  0  0
   27.7606  226.5061   18.5533 H   0  0  0  0  0  0  0  0  0  0  0  0
   30.0373  224.4469   20.2141 H   0  0  0  0  0  0  0  0  0  0  0  0
   29.9508  227.4800   19.8014 H   0  0  0  0  0  0  0  0  0  0  0  0
   28.7854  226.4884   20.7206 H   0  0  0  0  0  0  0  0  0  0  0  0
   32.0372  224.8118   21.4378 H   0  0  0  0  0  0  0  0  0  0  0  0
   32.5765  227.2293   21.8201 H   0  0  0  0  0  0  0  0  0  0  0  0
   30.0584  226.9613   22.3660 H   0  0  0  0  0  0  0  0  0  0  0  0
   30.8885  226.0442   24.6340 H   0  0  0  0  0  0  0  0  0  0  0  0
   32.2384  225.3047   23.7079 H   0  0  0  0  0  0  0  0  0  0  0  0
   32.0200  227.0877   23.7079 H   0  0  0  0  0  0  0  0  0  0  0  0
   29.5325  224.7639   23.6374 H   0  0  0  0  0  0  0  0  0  0  0  0
  1  2  2  0
  2  3  1  0
  2  4  1  0
  4  5  1  0
  5  6  2  0
  5  7  1  0
  1  8  1  0
  7  8  2  0
  7  9  1  0
  8 10  1  0
  9 11  1  0
 10 12  1  0
 11 12  1  0
 11 13  1  0
 13 14  1  0
 13 15  1  0
 15 16  1  0
 15 17  1  0
  3 18  1  0
  3 19  1  0
  4 20  1  0
  9 21  1  0
 10 22  1  0
 11 23  1  1
 12 24  1  0
 12 25  1  0
 13 26  1  1
 14 27  1  0
 15 28  1  6
 16 29  1  0
 16 30  1  0
 16 31  1  0
 17 32  1  0
M  END
$$$$
