PDB_DB06603_99
     RDKit          3D

 49 51  0  0  0  0  0  0  0  0999 V2000
  -15.7390   22.3530  -46.4220 O   0  0  0  0  0  0  0  0  0  0  0  0
  -15.8380   23.5970  -46.4510 C   0  0  0  0  0  0  0  0  0  0  0  0
  -16.9890   24.2110  -47.0540 N   0  0  0  0  0  0  0  0  0  0  0  0
  -17.9510   23.4530  -47.5800 O   0  0  0  0  0  0  0  0  0  0  0  0
  -14.7220   24.4720  -45.8450 C   0  0  0  0  0  0  0  0  0  0  0  0
  -14.1140   24.1080  -44.6540 C   0  0  0  0  0  0  0  0  0  0  0  0
  -12.7680   24.7340  -44.2930 C   0  0  0  0  0  0  0  0  0  0  0  0
  -11.7490   24.7600  -45.2590 C   0  0  0  0  0  0  0  0  0  0  0  0
  -10.5330   25.3180  -44.9570 C   0  0  0  0  0  0  0  0  0  0  0  0
  -12.5500   25.2790  -43.0160 C   0  0  0  0  0  0  0  0  0  0  0  0
  -11.3240   25.8430  -42.7090 C   0  0  0  0  0  0  0  0  0  0  0  0
  -10.3080   25.8730  -43.6720 C   0  0  0  0  0  0  0  0  0  0  0  0
   -8.9580   26.4850  -43.3430 C   0  0  0  0  0  0  0  0  0  0  0  0
   -7.8870   25.4700  -43.4980 N   0  0  0  0  0  0  0  0  0  0  0  0
   -7.9970   24.4890  -42.4070 C   0  0  0  0  0  0  0  0  0  0  0  0
   -8.5710   23.1600  -42.9060 C   0  0  0  0  0  0  0  0  0  0  0  0
   -8.5780   22.0750  -41.7700 C   0  0  0  0  0  0  0  0  0  0  0  0
   -7.5520   21.0400  -41.5510 C   0  0  0  0  0  0  0  0  0  0  0  0
   -7.9690   20.3230  -40.4440 C   0  0  0  0  0  0  0  0  0  0  0  0
   -9.1810   20.8540  -39.9770 N   0  0  0  0  0  0  0  0  0  0  0  0
   -9.5500   21.8800  -40.7400 C   0  0  0  0  0  0  0  0  0  0  0  0
  -10.8010   22.7040  -40.5490 C   0  0  0  0  0  0  0  0  0  0  0  0
   -7.1630   19.2160  -39.9650 C   0  0  0  0  0  0  0  0  0  0  0  0
   -5.9630   18.8830  -40.6290 C   0  0  0  0  0  0  0  0  0  0  0  0
   -5.5480   19.6150  -41.7490 C   0  0  0  0  0  0  0  0  0  0  0  0
   -6.3410   20.7020  -42.2180 C   0  0  0  0  0  0  0  0  0  0  0  0
  -17.0706   25.2374  -47.0797 H   0  0  0  0  0  0  0  0  0  0  0  0
  -18.4785   23.0374  -46.8526 H   0  0  0  0  0  0  0  0  0  0  0  0
  -14.4066   25.3907  -46.3613 H   0  0  0  0  0  0  0  0  0  0  0  0
  -14.5920   23.3813  -43.9806 H   0  0  0  0  0  0  0  0  0  0  0  0
  -11.9260   24.3331  -46.2572 H   0  0  0  0  0  0  0  0  0  0  0  0
   -9.7327   25.3349  -45.7115 H   0  0  0  0  0  0  0  0  0  0  0  0
  -13.3514   25.2574  -42.2628 H   0  0  0  0  0  0  0  0  0  0  0  0
  -11.1479   26.2673  -41.7095 H   0  0  0  0  0  0  0  0  0  0  0  0
   -8.7638   27.3260  -44.0250 H   0  0  0  0  0  0  0  0  0  0  0  0
   -8.9682   26.8418  -42.3025 H   0  0  0  0  0  0  0  0  0  0  0  0
   -7.9924   24.9921  -44.4043 H   0  0  0  0  0  0  0  0  0  0  0  0
   -6.9974   24.3107  -41.9840 H   0  0  0  0  0  0  0  0  0  0  0  0
   -8.6773   24.8950  -41.6438 H   0  0  0  0  0  0  0  0  0  0  0  0
   -9.6026   23.3230  -43.2513 H   0  0  0  0  0  0  0  0  0  0  0  0
   -7.9367   22.7962  -43.7278 H   0  0  0  0  0  0  0  0  0  0  0  0
   -9.7069   20.5020  -39.1644 H   0  0  0  0  0  0  0  0  0  0  0  0
  -10.9952   22.8319  -39.4739 H   0  0  0  0  0  0  0  0  0  0  0  0
  -10.6655   23.6902  -41.0170 H   0  0  0  0  0  0  0  0  0  0  0  0
  -11.6536   22.1901  -41.0170 H   0  0  0  0  0  0  0  0  0  0  0  0
   -7.4862   18.6378  -39.0868 H   0  0  0  0  0  0  0  0  0  0  0  0
   -5.3506   18.0447  -40.2654 H   0  0  0  0  0  0  0  0  0  0  0  0
   -4.6129   19.3515  -42.2648 H   0  0  0  0  0  0  0  0  0  0  0  0
   -6.0171   21.2802  -43.0960 H   0  0  0  0  0  0  0  0  0  0  0  0
  1  2  2  0
  2  3  1  0
  4  3  1  0
  2  5  1  0
  5  6  2  0
  6  7  1  0
  7  8  2  0
  8  9  1  0
  7 10  1  0
 10 11  2  0
  9 12  2  0
 11 12  1  0
 12 13  1  0
 13 14  1  0
 14 15  1  0
 15 16  1  0
 16 17  1  0
 17 18  1  0
 18 19  2  0
 19 20  1  0
 17 21  2  0
 20 21  1  0
 21 22  1  0
 19 23  1  0
 23 24  2  0
 24 25  1  0
 18 26  1  0
 25 26  2  0
  3 27  1  0
  4 28  1  0
  5 29  1  0
  6 30  1  0
  8 31  1  0
  9 32  1  0
 10 33  1  0
 11 34  1  0
 13 35  1  0
 13 36  1  0
 14 37  1  0
 15 38  1  0
 15 39  1  0
 16 40  1  0
 16 41  1  0
 20 42  1  0
 22 43  1  0
 22 44  1  0
 22 45  1  0
 23 46  1  0
 24 47  1  0
 25 48  1  0
 26 49  1  0
M  END
$$$$
