PDB_DB00302_98
     RDKit          3D

 26 26  0  0  0  0  0  0  0  0999 V2000
   21.5410  -22.3320   40.0090 C   0  0  0  0  0  0  0  0  0  0  0  0
   21.7240  -23.6620   40.7340 C   0  0  0  0  0  0  0  0  0  0  0  0
   20.4080  -24.2210   41.0190 C   0  0  0  0  0  0  0  0  0  0  0  0
   19.6170  -24.3840   39.7850 C   0  0  0  0  0  0  0  0  0  0  0  0
   19.4300  -23.0310   38.9900 C   0  0  0  0  0  0  0  0  0  0  0  0
   20.8200  -22.4410   38.6770 C   0  0  0  0  0  0  0  0  0  0  0  0
   18.1250  -24.9230   40.2490 C   0  0  0  0  0  0  0  0  0  0  0  0
   22.8460  -21.5350   40.0410 C   0  0  0  0  0  0  0  0  0  0  0  0
   17.6350  -25.1660   38.9020 N   0  0  0  0  0  0  0  0  0  0  0  0
   23.9610  -21.8130   39.5720 O   0  0  0  0  0  0  0  0  0  0  0  0
   22.8810  -20.3990   40.6280 O   0  0  0  0  0  0  0  0  0  0  0  0
   20.8161  -21.7177   40.5633 H   0  0  0  0  0  0  0  0  0  0  0  0
   22.2916  -24.3563   40.0970 H   0  0  0  0  0  0  0  0  0  0  0  0
   22.2772  -23.5059   41.6718 H   0  0  0  0  0  0  0  0  0  0  0  0
   20.5320  -25.2036   41.4977 H   0  0  0  0  0  0  0  0  0  0  0  0
   19.8732  -23.5284   41.6856 H   0  0  0  0  0  0  0  0  0  0  0  0
   20.1442  -25.0807   39.1167 H   0  0  0  0  0  0  0  0  0  0  0  0
   18.8912  -23.2256   38.0509 H   0  0  0  0  0  0  0  0  0  0  0  0
   18.8501  -22.3192   39.5958 H   0  0  0  0  0  0  0  0  0  0  0  0
   20.7180  -21.4476   38.2157 H   0  0  0  0  0  0  0  0  0  0  0  0
   21.3756  -23.0747   37.9700 H   0  0  0  0  0  0  0  0  0  0  0  0
   18.1725  -25.8385   40.8570 H   0  0  0  0  0  0  0  0  0  0  0  0
   17.5266  -24.2612   40.8924 H   0  0  0  0  0  0  0  0  0  0  0  0
   16.7132  -25.6231   38.9492 H   0  0  0  0  0  0  0  0  0  0  0  0
   17.5487  -24.2701   38.4012 H   0  0  0  0  0  0  0  0  0  0  0  0
   24.7150  -21.1805   39.6795 H   0  0  0  0  0  0  0  0  0  0  0  0
  1  2  1  0
  2  3  1  0
  3  4  1  0
  4  5  1  0
  1  6  1  0
  5  6  1  0
  4  7  1  0
  1  8  1  0
  7  9  1  0
  8 10  1  0
  8 11  2  0
  1 12  1  0
  2 13  1  0
  2 14  1  0
  3 15  1  0
  3 16  1  0
  4 17  1  0
  5 18  1  0
  5 19  1  0
  6 20  1  0
  6 21  1  0
  7 22  1  0
  7 23  1  0
  9 24  1  0
  9 25  1  0
 10 26  1  0
M  END
$$$$
