PDB_DB00558_92
     RDKit          3D

 43 43  0  0  0  0  0  0  0  0999 V2000
   -2.0700    3.2050   74.9710 C   0  0  0  0  0  0  0  0  0  0  0  0
   -1.3270    3.6820   75.8250 O   0  0  0  0  0  0  0  0  0  0  0  0
   -3.3050    3.2260   75.0940 O   0  0  0  0  0  0  0  0  0  0  0  0
   -1.5370    2.5530   73.7870 C   0  0  0  0  0  0  0  0  0  0  0  0
   -0.2260    2.3190   73.5160 C   0  0  0  0  0  0  0  0  0  0  0  0
    0.1510    1.4810   72.3180 C   0  0  1  0  0  0  0  0  0  0  0  0
   -0.9500    1.6680   71.2320 C   0  0  1  0  0  0  0  0  0  0  0  0
   -0.6400    0.7280   70.1160 N   0  0  0  0  0  0  0  0  0  0  0  0
   -0.0490    1.0430   68.9490 C   0  0  0  0  0  0  0  0  0  0  0  0
    0.2330    2.2190   68.6870 O   0  0  0  0  0  0  0  0  0  0  0  0
    0.1820   -0.1190   68.0010 C   0  0  0  0  0  0  0  0  0  0  0  0
   -2.3360    1.3030   71.8450 C   0  0  1  0  0  0  0  0  0  0  0  0
   -2.6160    2.1500   72.9300 O   0  0  0  0  0  0  0  0  0  0  0  0
   -3.5680    1.7220   71.0770 C   0  0  1  0  0  0  0  0  0  0  0  0
   -3.4930    2.7940   70.4680 O   0  0  0  0  0  0  0  0  0  0  0  0
   -4.7380    0.9980   71.1590 C   0  0  1  0  0  0  0  0  0  0  0  0
   -4.8240   -0.1810   71.8160 O   0  0  0  0  0  0  0  0  0  0  0  0
   -5.9470    1.4610   70.3950 C   0  0  0  0  0  0  0  0  0  0  0  0
   -5.8520    0.7810   69.1480 O   0  0  0  0  0  0  0  0  0  0  0  0
    1.4150    1.9000   71.7040 N   0  0  0  0  0  0  0  0  0  0  0  0
    2.3260    1.1110   71.1410 C   0  0  0  0  0  0  0  0  0  0  0  0
    3.3960    1.6040   70.5590 N   0  0  0  0  0  0  0  0  0  0  0  0
    2.1600   -0.1720   71.1010 N   0  0  0  0  0  0  0  0  0  0  0  0
   -0.3454    3.6511   75.7002 H   0  0  0  0  0  0  0  0  0  0  0  0
    0.5563    2.7379   74.1660 H   0  0  0  0  0  0  0  0  0  0  0  0
    0.2531    0.4427   72.6664 H   0  0  0  0  0  0  0  0  0  0  0  0
   -0.9769    2.7067   70.8708 H   0  0  0  0  0  0  0  0  0  0  0  0
   -0.9041   -0.2582   70.2520 H   0  0  0  0  0  0  0  0  0  0  0  0
    0.3642   -1.0353   68.5817 H   0  0  0  0  0  0  0  0  0  0  0  0
   -0.7063   -0.2572   67.3670 H   0  0  0  0  0  0  0  0  0  0  0  0
    1.0556    0.0931   67.3670 H   0  0  0  0  0  0  0  0  0  0  0  0
   -2.2137    0.2171   71.9708 H   0  0  0  0  0  0  0  0  0  0  0  0
   -3.9412    2.2527   71.9653 H   0  0  0  0  0  0  0  0  0  0  0  0
   -3.4408    3.5395   71.1173 H   0  0  0  0  0  0  0  0  0  0  0  0
   -4.4721    0.4637   70.2350 H   0  0  0  0  0  0  0  0  0  0  0  0
   -4.8120   -0.0165   72.7922 H   0  0  0  0  0  0  0  0  0  0  0  0
   -6.8717    1.1829   70.9218 H   0  0  0  0  0  0  0  0  0  0  0  0
   -5.9789    2.5543   70.2780 H   0  0  0  0  0  0  0  0  0  0  0  0
   -5.7168   -0.1864   69.3091 H   0  0  0  0  0  0  0  0  0  0  0  0
    4.0867    0.9715   70.1303 H   0  0  0  0  0  0  0  0  0  0  0  0
    3.5441    2.6229   70.5316 H   0  0  0  0  0  0  0  0  0  0  0  0
    2.8741   -0.7702   70.6617 H   0  0  0  0  0  0  0  0  0  0  0  0
    1.3138   -0.5948   71.5085 H   0  0  0  0  0  0  0  0  0  0  0  0
  1  2  1  0
  1  3  2  0
  1  4  1  0
  4  5  2  0
  5  6  1  0
  6  7  1  0
  7  8  1  0
  8  9  1  0
  9 10  2  0
  9 11  1  0
  7 12  1  0
  4 13  1  0
 12 13  1  0
 12 14  1  0
 14 15  1  0
 14 16  1  0
 16 17  1  0
 16 18  1  0
 18 19  1  0
  6 20  1  0
 20 21  2  3
 21 22  1  0
 21 23  1  0
  2 24  1  0
  5 25  1  0
  6 26  1  1
  7 27  1  6
  8 28  1  0
 11 29  1  0
 11 30  1  0
 11 31  1  0
 12 32  1  1
 14 33  1  6
 15 34  1  0
 16 35  1  1
 17 36  1  0
 18 37  1  0
 18 38  1  0
 19 39  1  0
 22 40  1  0
 22 41  1  0
 23 42  1  0
 23 43  1  0
M  END
$$$$
