PDB_DB08883_97
     RDKit          3D

 42 45  0  0  0  0  0  0  0  0999 V2000
  -20.1250  -14.6990  -35.1470 N   0  0  0  0  0  0  0  0  0  0  0  0
  -21.0300  -15.2420  -35.5560 C   0  0  0  0  0  0  0  0  0  0  0  0
  -22.2520  -15.9740  -36.1080 C   0  0  0  0  0  0  0  0  0  0  0  0
  -22.0840  -17.0240  -36.9970 C   0  0  0  0  0  0  0  0  0  0  0  0
  -23.1890  -17.6910  -37.5000 C   0  0  0  0  0  0  0  0  0  0  0  0
  -24.4630  -17.3080  -37.1150 C   0  0  0  0  0  0  0  0  0  0  0  0
  -24.6320  -16.2580  -36.2260 C   0  0  0  0  0  0  0  0  0  0  0  0
  -23.5280  -15.5910  -35.7220 C   0  0  0  0  0  0  0  0  0  0  0  0
  -23.7010  -14.5390  -34.8310 C   0  0  0  0  0  0  0  0  0  0  0  0
  -23.2720  -13.2390  -35.1370 C   0  0  0  0  0  0  0  0  0  0  0  0
  -22.7470  -13.0490  -36.1920 O   0  0  0  0  0  0  0  0  0  0  0  0
  -24.3120  -14.7710  -33.6090 C   0  0  0  0  0  0  0  0  0  0  0  0
  -24.4790  -13.7250  -32.7350 C   0  0  0  0  0  0  0  0  0  0  0  0
  -25.0880  -13.9390  -31.5070 C   0  0  0  0  0  0  0  0  0  0  0  0
  -26.1630  -14.7040  -31.4390 N   0  0  0  0  0  0  0  0  0  0  0  0
  -26.7780  -14.9370  -30.2920 C   0  0  0  0  0  0  0  0  0  0  0  0
  -26.3000  -14.3740  -29.1190 C   0  0  0  0  0  0  0  0  0  0  0  0
  -25.1760  -13.5660  -29.1500 C   0  0  0  0  0  0  0  0  0  0  0  0
  -24.5590  -13.3460  -30.3720 C   0  0  0  0  0  0  0  0  0  0  0  0
  -24.0430  -12.4660  -33.0760 C   0  0  0  0  0  0  0  0  0  0  0  0
  -23.4600  -12.2480  -34.2430 N   0  0  0  0  0  0  0  0  0  0  0  0
  -23.0730  -10.9970  -34.4820 C   0  0  0  0  0  0  0  0  0  0  0  0
  -21.7240  -10.6990  -34.5920 C   0  0  0  0  0  0  0  0  0  0  0  0
  -21.3210   -9.3970  -34.8410 C   0  0  0  0  0  0  0  0  0  0  0  0
  -22.2650   -8.3930  -34.9790 C   0  0  0  0  0  0  0  0  0  0  0  0
  -23.6140   -8.6910  -34.8690 C   0  0  0  0  0  0  0  0  0  0  0  0
  -24.0180   -9.9930  -34.6210 C   0  0  0  0  0  0  0  0  0  0  0  0
  -21.0722  -17.3280  -37.3034 H   0  0  0  0  0  0  0  0  0  0  0  0
  -23.0546  -18.5246  -38.2050 H   0  0  0  0  0  0  0  0  0  0  0  0
  -25.3407  -17.8370  -37.5147 H   0  0  0  0  0  0  0  0  0  0  0  0
  -25.6441  -15.9542  -35.9205 H   0  0  0  0  0  0  0  0  0  0  0  0
  -24.6589  -15.7803  -33.3425 H   0  0  0  0  0  0  0  0  0  0  0  0
  -27.6709  -15.5790  -30.2685 H   0  0  0  0  0  0  0  0  0  0  0  0
  -26.8126  -14.5687  -28.1654 H   0  0  0  0  0  0  0  0  0  0  0  0
  -24.7828  -13.1105  -28.2292 H   0  0  0  0  0  0  0  0  0  0  0  0
  -23.6636  -12.7106  -30.4393 H   0  0  0  0  0  0  0  0  0  0  0  0
  -24.1804  -11.6325  -32.3715 H   0  0  0  0  0  0  0  0  0  0  0  0
  -20.9736  -11.4957  -34.4817 H   0  0  0  0  0  0  0  0  0  0  0  0
  -20.2503   -9.1605  -34.9292 H   0  0  0  0  0  0  0  0  0  0  0  0
  -21.9441   -7.3594  -35.1758 H   0  0  0  0  0  0  0  0  0  0  0  0
  -24.3640   -7.8939  -34.9786 H   0  0  0  0  0  0  0  0  0  0  0  0
  -25.0888  -10.2296  -34.5345 H   0  0  0  0  0  0  0  0  0  0  0  0
  1  2  3  0
  2  3  1  0
  3  4  2  0
  4  5  1  0
  5  6  2  0
  6  7  1  0
  3  8  1  0
  7  8  2  0
  8  9  1  0
  9 10  1  0
 10 11  2  0
  9 12  2  0
 12 13  1  0
 13 14  1  0
 14 15  2  0
 15 16  1  0
 16 17  2  0
 17 18  1  0
 14 19  1  0
 18 19  2  0
 13 20  2  0
 10 21  1  0
 20 21  1  0
 21 22  1  0
 22 23  2  0
 23 24  1  0
 24 25  2  0
 25 26  1  0
 22 27  1  0
 26 27  2  0
  4 28  1  0
  5 29  1  0
  6 30  1  0
  7 31  1  0
 12 32  1  0
 16 33  1  0
 17 34  1  0
 18 35  1  0
 19 36  1  0
 20 37  1  0
 23 38  1  0
 24 39  1  0
 25 40  1  0
 26 41  1  0
 27 42  1  0
M  END
$$$$
