PDB_DB00537_99
     RDKit          3D

 42 45  0  0  0  0  0  0  0  0999 V2000
    3.4710   40.5350   73.0810 O   0  0  0  0  0  0  0  0  0  0  0  0
    2.9970   41.9090   73.0340 C   0  0  0  0  0  0  0  0  0  0  0  0
    2.7240   42.4920   74.0840 O   0  0  0  0  0  0  0  0  0  0  0  0
    2.8510   42.5690   71.6880 C   0  0  0  0  0  0  0  0  0  0  0  0
    2.4030   43.8890   71.5720 C   0  0  0  0  0  0  0  0  0  0  0  0
    2.2870   44.4660   70.3630 N   0  0  0  0  0  0  0  0  0  0  0  0
    2.5820   43.7780   69.2480 C   0  0  0  0  0  0  0  0  0  0  0  0
    2.4370   44.4080   68.0220 C   0  0  0  0  0  0  0  0  0  0  0  0
    2.7360   43.7310   66.8560 C   0  0  0  0  0  0  0  0  0  0  0  0
    2.5970   44.4380   65.6610 N   0  0  0  0  0  0  0  0  0  0  0  0
    2.2360   45.8450   65.7660 C   0  0  0  0  0  0  0  0  0  0  0  0
    3.3020   46.5560   64.9430 C   0  0  0  0  0  0  0  0  0  0  0  0
    3.1910   46.1330   63.5680 N   0  0  0  0  0  0  0  0  0  0  0  0
    2.5000   44.8870   63.3130 C   0  0  0  0  0  0  0  0  0  0  0  0
    2.8590   43.8290   64.3550 C   0  0  0  0  0  0  0  0  0  0  0  0
    3.1880   42.4240   66.9000 C   0  0  0  0  0  0  0  0  0  0  0  0
    3.4910   41.7660   65.7640 F   0  0  0  0  0  0  0  0  0  0  0  0
    3.3330   41.7790   68.1220 C   0  0  0  0  0  0  0  0  0  0  0  0
    3.0320   42.4580   69.3010 C   0  0  0  0  0  0  0  0  0  0  0  0
    3.1650   41.8460   70.5460 C   0  0  0  0  0  0  0  0  0  0  0  0
    3.6030   40.5430   70.6600 O   0  0  0  0  0  0  0  0  0  0  0  0
    1.8090   45.8460   70.2200 C   0  0  0  0  0  0  0  0  0  0  0  0
    1.9450   46.5890   71.5390 C   0  0  0  0  0  0  0  0  0  0  0  0
    2.9770   46.7880   70.4370 C   0  0  0  0  0  0  0  0  0  0  0  0
    3.6927   40.0589   72.2418 H   0  0  0  0  0  0  0  0  0  0  0  0
    2.1437   44.4591   72.4763 H   0  0  0  0  0  0  0  0  0  0  0  0
    2.0833   45.4486   67.9776 H   0  0  0  0  0  0  0  0  0  0  0  0
    1.2342   46.0247   65.3488 H   0  0  0  0  0  0  0  0  0  0  0  0
    2.1970   46.1976   66.8072 H   0  0  0  0  0  0  0  0  0  0  0  0
    3.1536   47.6440   65.0076 H   0  0  0  0  0  0  0  0  0  0  0  0
    4.3005   46.3052   65.3304 H   0  0  0  0  0  0  0  0  0  0  0  0
    2.6927   46.8743   63.0550 H   0  0  0  0  0  0  0  0  0  0  0  0
    1.4151   45.0663   63.3436 H   0  0  0  0  0  0  0  0  0  0  0  0
    2.8059   44.5170   62.3233 H   0  0  0  0  0  0  0  0  0  0  0  0
    3.9204   43.5532   64.2687 H   0  0  0  0  0  0  0  0  0  0  0  0
    2.2693   42.9111   64.2146 H   0  0  0  0  0  0  0  0  0  0  0  0
    3.6838   40.7371   68.1586 H   0  0  0  0  0  0  0  0  0  0  0  0
    1.0098   45.7316   69.4729 H   0  0  0  0  0  0  0  0  0  0  0  0
    1.2440   47.3988   71.7897 H   0  0  0  0  0  0  0  0  0  0  0  0
    1.9831   46.2953   72.5984 H   0  0  0  0  0  0  0  0  0  0  0  0
    3.9936   46.3851   70.5563 H   0  0  0  0  0  0  0  0  0  0  0  0
    3.3845   47.6579   69.9010 H   0  0  0  0  0  0  0  0  0  0  0  0
  1  2  1  0
  2  3  2  0
  2  4  1  0
  4  5  2  0
  5  6  1  0
  6  7  1  0
  7  8  1  0
  8  9  2  0
  9 10  1  0
 10 11  1  0
 11 12  1  0
 12 13  1  0
 13 14  1  0
 10 15  1  0
 14 15  1  0
  9 16  1  0
 16 17  1  0
 16 18  2  0
  7 19  2  0
 18 19  1  0
  4 20  1  0
 19 20  1  0
 20 21  2  0
  6 22  1  0
 22 23  1  0
 22 24  1  0
 23 24  1  0
  1 25  1  0
  5 26  1  0
  8 27  1  0
 11 28  1  0
 11 29  1  0
 12 30  1  0
 12 31  1  0
 13 32  1  0
 14 33  1  0
 14 34  1  0
 15 35  1  0
 15 36  1  0
 18 37  1  0
 22 38  1  0
 23 39  1  0
 23 40  1  0
 24 41  1  0
 24 42  1  0
M  END
$$$$
