PDB_DB00552_97
     RDKit          3D

 35 37  0  0  0  0  0  0  0  0999 V2000
   84.0610   22.0270   50.3810 N   0  0  0  0  0  0  0  0  0  0  0  0
   84.1370   22.5300   51.5960 C   0  0  0  0  0  0  0  0  0  0  0  0
   85.4160   22.7610   51.9660 N   0  0  0  0  0  0  0  0  0  0  0  0
   85.3690   21.9380   49.9330 C   0  0  0  0  0  0  0  0  0  0  0  0
   86.2280   22.3760   50.8870 C   0  0  0  0  0  0  0  0  0  0  0  0
   87.5770   22.1950   51.1090 N   0  0  0  0  0  0  0  0  0  0  0  0
   88.4010   22.0610   50.1260 C   0  0  0  0  0  0  0  0  0  0  0  0
   88.1740   21.6850   48.8470 N   0  0  0  0  0  0  0  0  0  0  0  0
   86.9620   21.8220   48.0280 C   0  0  0  0  0  0  0  0  0  0  0  0
   85.6920   21.2800   48.6580 C   0  0  1  0  0  0  0  0  0  0  0  0
   85.7810   19.6850   48.7560 O   0  0  0  0  0  0  0  0  0  0  0  0
   84.9820   24.7950   53.4560 C   0  0  0  0  0  0  0  0  0  0  0  0
   84.3160   24.4720   54.7900 C   0  0  2  0  0  0  0  0  0  0  0  0
   84.2690   25.6430   55.6220 O   0  0  0  0  0  0  0  0  0  0  0  0
   83.3490   21.8880   55.8490 O   0  0  0  0  0  0  0  0  0  0  0  0
   84.5060   22.5070   56.4000 C   0  0  0  0  0  0  0  0  0  0  0  0
   85.2450   23.4080   55.3920 C   0  0  1  0  0  0  0  0  0  0  0  0
   85.7910   22.6690   54.2770 O   0  0  0  0  0  0  0  0  0  0  0  0
   85.8540   23.5460   53.1300 C   0  0  1  0  0  0  0  0  0  0  0  0
   83.2643   22.7371   52.2328 H   0  0  0  0  0  0  0  0  0  0  0  0
   89.4506   22.2875   50.3648 H   0  0  0  0  0  0  0  0  0  0  0  0
   88.9714   21.2344   48.3758 H   0  0  0  0  0  0  0  0  0  0  0  0
   86.8098   22.8917   47.8216 H   0  0  0  0  0  0  0  0  0  0  0  0
   87.1350   21.2204   47.1235 H   0  0  0  0  0  0  0  0  0  0  0  0
   84.8390   21.5235   48.0075 H   0  0  0  0  0  0  0  0  0  0  0  0
   85.7962   19.4132   49.7078 H   0  0  0  0  0  0  0  0  0  0  0  0
   84.2249   24.9532   52.6738 H   0  0  0  0  0  0  0  0  0  0  0  0
   85.5807   25.7165   53.5047 H   0  0  0  0  0  0  0  0  0  0  0  0
   83.2759   24.1282   54.6905 H   0  0  0  0  0  0  0  0  0  0  0  0
   84.2799   25.3720   56.5741 H   0  0  0  0  0  0  0  0  0  0  0  0
   82.7621   21.5740   56.5818 H   0  0  0  0  0  0  0  0  0  0  0  0
   84.1992   23.1210   57.2596 H   0  0  0  0  0  0  0  0  0  0  0  0
   85.1993   21.7053   56.6943 H   0  0  0  0  0  0  0  0  0  0  0  0
   86.0547   23.8700   55.9758 H   0  0  0  0  0  0  0  0  0  0  0  0
   86.8597   23.9241   52.8940 H   0  0  0  0  0  0  0  0  0  0  0  0
  1  2  2  0
  2  3  1  0
  1  4  1  0
  3  5  1  0
  4  5  2  0
  5  6  1  0
  6  7  2  0
  7  8  1  0
  8  9  1  0
  4 10  1  0
  9 10  1  0
 10 11  1  0
 12 13  1  0
 13 14  1  0
 15 16  1  0
 13 17  1  0
 16 17  1  0
 17 18  1  0
  3 19  1  0
 12 19  1  0
 18 19  1  0
  2 20  1  0
  7 21  1  0
  8 22  1  0
  9 23  1  0
  9 24  1  0
 10 25  1  6
 11 26  1  0
 12 27  1  0
 12 28  1  0
 13 29  1  6
 14 30  1  0
 15 31  1  0
 16 32  1  0
 16 33  1  0
 17 34  1  1
 19 35  1  6
M  END
$$$$
