PDB_DB00741_96
     RDKit          3D

 56 59  0  0  0  0  0  0  0  0999 V2000
    6.9720   95.8980   -3.5790 C   0  0  0  0  0  0  0  0  0  0  0  0
    7.1750   95.4520   -5.0250 C   0  0  0  0  0  0  0  0  0  0  0  0
    8.3380   94.4870   -5.1450 C   0  0  0  0  0  0  0  0  0  0  0  0
    8.8020   93.7200   -3.9810 C   0  0  0  0  0  0  0  0  0  0  0  0
    8.2490   93.8630   -2.7690 C   0  0  0  0  0  0  0  0  0  0  0  0
    8.7230   92.9370   -1.6850 C   0  0  0  0  0  0  0  0  0  0  0  0
    9.0280   93.6850   -0.4090 C   0  0  0  0  0  0  0  0  0  0  0  0
    7.9550   94.7070   -0.0510 C   0  0  2  0  0  0  0  0  0  0  0  0
    7.5690   95.6320   -1.2090 C   0  0  1  0  0  0  0  0  0  0  0  0
    7.1330   94.8620   -2.4820 C   0  0  1  0  0  0  0  0  0  0  0  0
    7.1440   97.5230    0.4700 C   0  0  0  0  0  0  0  0  0  0  0  0
    6.6420   96.8140   -0.7980 C   0  0  2  0  0  0  0  0  0  0  0  0
    7.5490   96.5940    1.6140 C   0  0  1  0  0  0  0  0  0  0  0  0
    8.5200   95.5520    1.0720 C   0  0  1  0  0  0  0  0  0  0  0  0
    8.9740   94.8210    2.3060 C   0  0  0  0  0  0  0  0  0  0  0  0
    8.9570   95.8630    3.4130 C   0  0  0  0  0  0  0  0  0  0  0  0
    8.3940   97.1180    2.8010 C   0  0  2  0  0  0  0  0  0  0  0  0
    6.2890   95.9460    2.1870 C   0  0  0  0  0  0  0  0  0  0  0  0
    5.8570   94.0330   -2.2940 C   0  0  0  0  0  0  0  0  0  0  0  0
    7.6720   97.9380    3.8560 C   0  0  0  0  0  0  0  0  0  0  0  0
    7.2000   99.3100    3.4870 C   0  0  0  0  0  0  0  0  0  0  0  0
    8.9090   94.3430   -6.2120 O   0  0  0  0  0  0  0  0  0  0  0  0
    5.2560   96.4660   -0.6350 O   0  0  0  0  0  0  0  0  0  0  0  0
    9.5280   97.8900    2.3540 O   0  0  0  0  0  0  0  0  0  0  0  0
    7.4600   97.4990    4.9780 O   0  0  0  0  0  0  0  0  0  0  0  0
    6.4830   99.8860    4.5720 O   0  0  0  0  0  0  0  0  0  0  0  0
    7.6978   96.7002   -3.3797 H   0  0  0  0  0  0  0  0  0  0  0  0
    5.9120   96.1876   -3.5283 H   0  0  0  0  0  0  0  0  0  0  0  0
    6.2594   94.9556   -5.3789 H   0  0  0  0  0  0  0  0  0  0  0  0
    7.3963   96.3404   -5.6348 H   0  0  0  0  0  0  0  0  0  0  0  0
    9.6291   93.0061   -4.1085 H   0  0  0  0  0  0  0  0  0  0  0  0
    7.9389   92.1923   -1.4835 H   0  0  0  0  0  0  0  0  0  0  0  0
    9.6480   92.4505   -2.0281 H   0  0  0  0  0  0  0  0  0  0  0  0
    9.1094   92.9586    0.4130 H   0  0  0  0  0  0  0  0  0  0  0  0
    9.9686   94.2337   -0.5642 H   0  0  0  0  0  0  0  0  0  0  0  0
    7.0404   94.1621    0.2257 H   0  0  0  0  0  0  0  0  0  0  0  0
    8.4984   96.1405   -1.5050 H   0  0  0  0  0  0  0  0  0  0  0  0
    8.0200   98.1298    0.1972 H   0  0  0  0  0  0  0  0  0  0  0  0
    6.2981   98.1188    0.8435 H   0  0  0  0  0  0  0  0  0  0  0  0
    6.6952   97.5005   -1.6559 H   0  0  0  0  0  0  0  0  0  0  0  0
    9.3804   95.9893    0.5442 H   0  0  0  0  0  0  0  0  0  0  0  0
    8.2853   93.9962    2.5415 H   0  0  0  0  0  0  0  0  0  0  0  0
    9.9706   94.3737    2.1766 H   0  0  0  0  0  0  0  0  0  0  0  0
    8.3205   95.5256    4.2443 H   0  0  0  0  0  0  0  0  0  0  0  0
    9.9652   96.0327    3.8188 H   0  0  0  0  0  0  0  0  0  0  0  0
    6.3325   95.9684    3.2859 H   0  0  0  0  0  0  0  0  0  0  0  0
    5.4031   96.5003    1.8437 H   0  0  0  0  0  0  0  0  0  0  0  0
    6.2246   94.9029    1.8437 H   0  0  0  0  0  0  0  0  0  0  0  0
    5.6585   93.9040   -1.2198 H   0  0  0  0  0  0  0  0  0  0  0  0
    5.0092   94.5533   -2.7637 H   0  0  0  0  0  0  0  0  0  0  0  0
    5.9878   93.0470   -2.7637 H   0  0  0  0  0  0  0  0  0  0  0  0
    8.0681   99.9418    3.2477 H   0  0  0  0  0  0  0  0  0  0  0  0
    6.5367   99.2405    2.6122 H   0  0  0  0  0  0  0  0  0  0  0  0
    5.0406   96.4119    0.3298 H   0  0  0  0  0  0  0  0  0  0  0  0
   10.0264   98.2293    3.1392 H   0  0  0  0  0  0  0  0  0  0  0  0
    6.8717   99.5737    5.4273 H   0  0  0  0  0  0  0  0  0  0  0  0
  1  2  1  0
  2  3  1  0
  3  4  1  0
  4  5  2  0
  5  6  1  0
  6  7  1  0
  7  8  1  0
  8  9  1  0
  1 10  1  0
  5 10  1  0
  9 10  1  0
  9 12  1  0
 11 12  1  0
 11 13  1  0
  8 14  1  0
 13 14  1  0
 14 15  1  0
 15 16  1  0
 13 17  1  0
 16 17  1  0
 13 18  1  1
 10 19  1  1
 17 20  1  0
 20 21  1  0
  3 22  2  0
 12 23  1  0
 17 24  1  6
 20 25  2  0
 21 26  1  0
  1 27  1  0
  1 28  1  0
  2 29  1  0
  2 30  1  0
  4 31  1  0
  6 32  1  0
  6 33  1  0
  7 34  1  0
  7 35  1  0
  8 36  1  1
  9 37  1  6
 11 38  1  0
 11 39  1  0
 12 40  1  6
 14 41  1  6
 15 42  1  0
 15 43  1  0
 16 44  1  0
 16 45  1  0
 18 46  1  0
 18 47  1  0
 18 48  1  0
 19 49  1  0
 19 50  1  0
 19 51  1  0
 21 52  1  0
 21 53  1  0
 23 54  1  0
 24 55  1  0
 26 56  1  0
M  END
$$$$
