PDB_DB02703_99
     RDKit          3D

 85 88  0  0  0  0  0  0  0  0999 V2000
   97.7290 -141.7620  130.7740 C   0  0  0  0  0  0  0  0  0  0  0  0
   97.2140 -140.5290  130.0410 C   0  0  0  0  0  0  0  0  0  0  0  0
   96.0410 -140.0090  130.8450 C   0  0  2  0  0  0  0  0  0  0  0  0
   96.2950 -139.6490  132.3010 C   0  0  2  0  0  0  0  0  0  0  0  0
   96.8430 -140.8920  133.0010 C   0  0  2  0  0  0  0  0  0  0  0  0
   97.1760 -140.6020  134.4660 C   0  0  0  0  0  0  0  0  0  0  0  0
   97.6690 -141.8570  135.2010 C   0  0  0  0  0  0  0  0  0  0  0  0
   97.7330 -143.1160  134.3290 C   0  0  1  0  0  0  0  0  0  0  0  0
   98.4050 -142.8370  132.9760 C   0  0  2  0  0  0  0  0  0  0  0  0
   98.0290 -141.5260  132.2610 C   0  0  1  0  0  0  0  0  0  0  0  0
   98.5600 -144.1340  132.1710 C   0  0  1  0  0  0  0  0  0  0  0  0
   99.3480 -145.2510  132.8340 C   0  0  0  0  0  0  0  0  0  0  0  0
   98.6470 -145.4380  134.1870 C   0  0  2  0  0  0  0  0  0  0  0  0
   98.6040 -144.1610  135.0370 C   0  0  2  0  0  0  0  0  0  0  0  0
   97.9970 -144.7440  136.3230 C   0  0  0  0  0  0  0  0  0  0  0  0
   98.7400 -146.0820  136.5190 C   0  0  1  0  0  0  0  0  0  0  0  0
   99.2770 -146.4610  135.1300 C   0  0  0  0  0  0  0  0  0  0  0  0
   95.0220 -139.1330  132.9790 C   0  0  0  0  0  0  0  0  0  0  0  0
   99.2260 -140.5780  132.3400 C   0  0  0  0  0  0  0  0  0  0  0  0
   96.3370 -143.7160  134.1580 C   0  0  0  0  0  0  0  0  0  0  0  0
   99.9950 -143.5710  135.3080 C   0  0  0  0  0  0  0  0  0  0  0  0
   99.8570 -147.6570  134.7170 C   0  0  0  0  0  0  0  0  0  0  0  0
   99.1130 -148.3920  133.7910 C   0  0  0  0  0  0  0  0  0  0  0  0
   99.3370 -149.7170  133.4430 C   0  0  0  0  0  0  0  0  0  0  0  0
   98.3070 -150.3910  132.7910 C   0  0  0  0  0  0  0  0  0  0  0  0
   98.4390 -151.6960  132.3400 C   0  0  0  0  0  0  0  0  0  0  0  0
   97.1780 -152.5050  132.0370 C   0  0  0  0  0  0  0  0  0  0  0  0
   99.8070 -152.3830  132.3010 C   0  0  0  0  0  0  0  0  0  0  0  0
  101.3230 -147.9670  135.0450 C   0  0  0  0  0  0  0  0  0  0  0  0
   99.4480 -146.4330  138.6850 C   0  0  0  0  0  0  0  0  0  0  0  0
   98.1090 -147.1800  138.7600 C   0  0  0  0  0  0  0  0  0  0  0  0
   97.2770 -144.5110  131.7770 O   0  0  0  0  0  0  0  0  0  0  0  0
   99.8090 -145.9430  137.4660 O   0  0  0  0  0  0  0  0  0  0  0  0
  100.2050 -146.4460  139.6580 O   0  0  0  0  0  0  0  0  0  0  0  0
  101.9140 -147.3330  135.9460 O   0  0  0  0  0  0  0  0  0  0  0  0
  101.9550 -148.8480  134.4200 O   0  0  0  0  0  0  0  0  0  0  0  0
   94.9480 -140.8390  130.7600 O   0  0  0  0  0  0  0  0  0  0  0  0
   96.9687 -142.5531  130.6961 H   0  0  0  0  0  0  0  0  0  0  0  0
   98.6809 -142.0401  130.2981 H   0  0  0  0  0  0  0  0  0  0  0  0
   98.0030 -139.7648  129.9823 H   0  0  0  0  0  0  0  0  0  0  0  0
   96.9129 -140.7750  129.0120 H   0  0  0  0  0  0  0  0  0  0  0  0
   95.8421 -139.0464  130.3513 H   0  0  0  0  0  0  0  0  0  0  0  0
   97.0280 -138.8314  132.3657 H   0  0  0  0  0  0  0  0  0  0  0  0
   96.0392 -141.6426  132.9790 H   0  0  0  0  0  0  0  0  0  0  0  0
   97.9627 -139.8342  134.5065 H   0  0  0  0  0  0  0  0  0  0  0  0
   96.2574 -140.2555  134.9620 H   0  0  0  0  0  0  0  0  0  0  0  0
   98.6785 -141.6548  135.5883 H   0  0  0  0  0  0  0  0  0  0  0  0
   96.9382 -142.0627  135.9970 H   0  0  0  0  0  0  0  0  0  0  0  0
   99.4415 -142.5236  133.1692 H   0  0  0  0  0  0  0  0  0  0  0  0
   99.2034 -143.9288  131.3027 H   0  0  0  0  0  0  0  0  0  0  0  0
   99.2996 -146.1733  132.2364 H   0  0  0  0  0  0  0  0  0  0  0  0
  100.4174 -145.0149  132.9372 H   0  0  0  0  0  0  0  0  0  0  0  0
   97.6564 -145.7726  133.8454 H   0  0  0  0  0  0  0  0  0  0  0  0
   98.1715 -144.0721  137.1763 H   0  0  0  0  0  0  0  0  0  0  0  0
   96.9069 -144.8735  136.2535 H   0  0  0  0  0  0  0  0  0  0  0  0
   98.0750 -146.8603  136.9215 H   0  0  0  0  0  0  0  0  0  0  0  0
   95.1427 -139.1819  134.0713 H   0  0  0  0  0  0  0  0  0  0  0  0
   94.8420 -138.0909  132.6763 H   0  0  0  0  0  0  0  0  0  0  0  0
   94.1672 -139.7556  132.6763 H   0  0  0  0  0  0  0  0  0  0  0  0
   99.4710 -140.3839  133.3947 H   0  0  0  0  0  0  0  0  0  0  0  0
  100.0917 -141.0381  131.8411 H   0  0  0  0  0  0  0  0  0  0  0  0
   98.9764 -139.6299  131.8411 H   0  0  0  0  0  0  0  0  0  0  0  0
   95.8957 -143.9057  135.1476 H   0  0  0  0  0  0  0  0  0  0  0  0
   95.7009 -143.0118  133.6017 H   0  0  0  0  0  0  0  0  0  0  0  0
   96.4102 -144.6621  133.6017 H   0  0  0  0  0  0  0  0  0  0  0  0
  100.1587 -143.5016  136.3935 H   0  0  0  0  0  0  0  0  0  0  0  0
  100.7622 -144.2212  134.8623 H   0  0  0  0  0  0  0  0  0  0  0  0
  100.0608 -142.5675  134.8623 H   0  0  0  0  0  0  0  0  0  0  0  0
   98.0773 -148.3600  134.1601 H   0  0  0  0  0  0  0  0  0  0  0  0
   99.4214 -147.8946  132.8596 H   0  0  0  0  0  0  0  0  0  0  0  0
  100.2166 -149.7407  132.7830 H   0  0  0  0  0  0  0  0  0  0  0  0
   99.4556 -150.2436  134.4015 H   0  0  0  0  0  0  0  0  0  0  0  0
   97.3529 -149.8686  132.6276 H   0  0  0  0  0  0  0  0  0  0  0  0
   96.7025 -152.8101  132.9808 H   0  0  0  0  0  0  0  0  0  0  0  0
   96.4770 -151.8876  131.4561 H   0  0  0  0  0  0  0  0  0  0  0  0
   97.4470 -153.3995  131.4561 H   0  0  0  0  0  0  0  0  0  0  0  0
  100.1582 -152.5594  133.3284 H   0  0  0  0  0  0  0  0  0  0  0  0
   99.7197 -153.3442  131.7733 H   0  0  0  0  0  0  0  0  0  0  0  0
  100.5258 -151.7390  131.7733 H   0  0  0  0  0  0  0  0  0  0  0  0
   97.8334 -147.3337  139.8138 H   0  0  0  0  0  0  0  0  0  0  0  0
   97.3295 -146.5864  138.2600 H   0  0  0  0  0  0  0  0  0  0  0  0
   98.2046 -148.1551  138.2600 H   0  0  0  0  0  0  0  0  0  0  0  0
   96.7202 -144.6746  132.5791 H   0  0  0  0  0  0  0  0  0  0  0  0
  102.9007 -149.0334  134.6465 H   0  0  0  0  0  0  0  0  0  0  0  0
   94.6397 -141.0731  131.6712 H   0  0  0  0  0  0  0  0  0  0  0  0
  2  1  1  0
  3  2  1  0
  4  3  1  0
  5  4  1  0
  6  5  1  0
  7  6  1  0
  8  7  1  0
  9  8  1  0
 10  1  1  0
 10  5  1  0
 10  9  1  0
 11  9  1  0
 12 11  1  0
 13 12  1  0
 14  8  1  0
 14 13  1  0
 15 14  1  0
 16 15  1  0
 17 13  1  0
 17 16  1  0
 18  4  1  0
 10 19  1  6
  8 20  1  6
 14 21  1  1
 22 17  2  0
 23 22  1  0
 24 23  1  0
 25 24  1  0
 26 25  2  3
 27 26  1  0
 28 26  1  0
 29 22  1  0
 31 30  1  0
 32 11  1  0
 33 30  1  0
 33 16  1  0
 34 30  2  0
 35 29  2  0
 36 29  1  0
 37  3  1  0
  1 38  1  0
  1 39  1  0
  2 40  1  0
  2 41  1  0
  3 42  1  6
  4 43  1  6
  5 44  1  1
  6 45  1  0
  6 46  1  0
  7 47  1  0
  7 48  1  0
  9 49  1  1
 11 50  1  6
 12 51  1  0
 12 52  1  0
 13 53  1  6
 15 54  1  0
 15 55  1  0
 16 56  1  1
 18 57  1  0
 18 58  1  0
 18 59  1  0
 19 60  1  0
 19 61  1  0
 19 62  1  0
 20 63  1  0
 20 64  1  0
 20 65  1  0
 21 66  1  0
 21 67  1  0
 21 68  1  0
 23 69  1  0
 23 70  1  0
 24 71  1  0
 24 72  1  0
 25 73  1  0
 27 74  1  0
 27 75  1  0
 27 76  1  0
 28 77  1  0
 28 78  1  0
 28 79  1  0
 31 80  1  0
 31 81  1  0
 31 82  1  0
 32 83  1  0
 36 84  1  0
 37 85  1  0
M  END
$$$$
