PDB_DB00273_93
     RDKit          3D

 43 45  0  0  0  0  0  0  0  0999 V2000
    1.6840  -23.0740   16.5250 C   0  0  0  0  0  0  0  0  0  0  0  0
    1.9230  -21.7880   17.3140 C   0  0  0  0  0  0  0  0  0  0  0  0
    0.7800  -20.7860   17.1140 C   0  0  0  0  0  0  0  0  0  0  0  0
    3.2060  -21.2510   16.9760 O   0  0  0  0  0  0  0  0  0  0  0  0
    1.9860  -22.0290   18.7200 O   0  0  0  0  0  0  0  0  0  0  0  0
    2.9730  -21.1490   19.2690 C   0  0  1  0  0  0  0  0  0  0  0  0
    3.5780  -21.8070   20.4980 C   0  0  2  0  0  0  0  0  0  0  0  0
    4.3950  -20.8800   21.1880 O   0  0  0  0  0  0  0  0  0  0  0  0
    5.3900  -21.6190   21.8930 C   0  0  0  0  0  0  0  0  0  0  0  0
    4.8780  -22.0240   23.2850 C   0  0  0  0  0  0  0  0  0  0  0  0
    6.6630  -20.7760   21.9710 C   0  0  0  0  0  0  0  0  0  0  0  0
    5.6220  -22.7870   21.1090 O   0  0  0  0  0  0  0  0  0  0  0  0
    4.5060  -22.9920   20.2360 C   0  0  2  0  0  0  0  0  0  0  0  0
    4.9570  -23.0590   18.7850 C   0  0  0  0  0  0  0  0  0  0  0  0
    5.1300  -21.7220   18.2950 O   0  0  0  0  0  0  0  0  0  0  0  0
    3.9700  -20.9020   18.1300 C   0  0  1  0  0  0  0  0  0  0  0  0
    4.4900  -19.4660   18.0190 C   0  0  0  0  0  0  0  0  0  0  0  0
    3.4910  -18.4780   18.2820 O   0  0  0  0  0  0  0  0  0  0  0  0
    3.7770  -16.9830   18.0330 S   0  0  0  0  0  0  0  0  0  0  0  0
    4.0060  -16.7570   16.5990 O   0  0  0  0  0  0  0  0  0  0  0  0
    2.5620  -16.2840   18.4660 O   0  0  0  0  0  0  0  0  0  0  0  0
    5.0290  -16.5410   18.7850 N   0  0  0  0  0  0  0  0  0  0  0  0
    1.5288  -23.9093   17.2237 H   0  0  0  0  0  0  0  0  0  0  0  0
    0.7925  -22.9553   15.8916 H   0  0  0  0  0  0  0  0  0  0  0  0
    2.5586  -23.2835   15.8916 H   0  0  0  0  0  0  0  0  0  0  0  0
    0.4049  -20.4572   18.0944 H   0  0  0  0  0  0  0  0  0  0  0  0
    1.1496  -19.9156   16.5521 H   0  0  0  0  0  0  0  0  0  0  0  0
   -0.0346  -21.2663   16.5521 H   0  0  0  0  0  0  0  0  0  0  0  0
    2.5813  -20.1812   19.6154 H   0  0  0  0  0  0  0  0  0  0  0  0
    2.6944  -22.1578   21.0514 H   0  0  0  0  0  0  0  0  0  0  0  0
    5.4923  -21.5381   24.0573 H   0  0  0  0  0  0  0  0  0  0  0  0
    3.8305  -21.7074   23.3968 H   0  0  0  0  0  0  0  0  0  0  0  0
    4.9449  -23.1163   23.3968 H   0  0  0  0  0  0  0  0  0  0  0  0
    6.9242  -20.6030   23.0254 H   0  0  0  0  0  0  0  0  0  0  0  0
    7.4863  -21.3080   21.4718 H   0  0  0  0  0  0  0  0  0  0  0  0
    6.4945  -19.8104   21.4718 H   0  0  0  0  0  0  0  0  0  0  0  0
    3.9943  -23.9473   20.4246 H   0  0  0  0  0  0  0  0  0  0  0  0
    5.9103  -23.6039   18.7184 H   0  0  0  0  0  0  0  0  0  0  0  0
    4.2021  -23.5845   18.1817 H   0  0  0  0  0  0  0  0  0  0  0  0
    5.3087  -19.3349   18.7418 H   0  0  0  0  0  0  0  0  0  0  0  0
    4.8242  -19.3212   16.9810 H   0  0  0  0  0  0  0  0  0  0  0  0
    4.8594  -16.6009   19.7992 H   0  0  0  0  0  0  0  0  0  0  0  0
    5.8163  -17.1549   18.5317 H   0  0  0  0  0  0  0  0  0  0  0  0
  1  2  1  0
  2  3  1  0
  2  4  1  0
  2  5  1  0
  5  6  1  0
  6  7  1  0
  7  8  1  0
  8  9  1  0
  9 10  1  0
  9 11  1  0
  9 12  1  0
  7 13  1  0
 12 13  1  0
 13 14  1  0
 14 15  1  0
  4 16  1  0
  6 16  1  0
 15 16  1  0
 16 17  1  6
 17 18  1  0
 18 19  1  0
 19 20  2  0
 19 21  2  0
 19 22  1  0
  1 23  1  0
  1 24  1  0
  1 25  1  0
  3 26  1  0
  3 27  1  0
  3 28  1  0
  6 29  1  1
  7 30  1  1
 10 31  1  0
 10 32  1  0
 10 33  1  0
 11 34  1  0
 11 35  1  0
 11 36  1  0
 13 37  1  1
 14 38  1  0
 14 39  1  0
 17 40  1  0
 17 41  1  0
 22 42  1  0
 22 43  1  0
M  END
$$$$
