PDB_DB00421_94
     RDKit          3D

 61 65  0  0  0  0  0  0  0  0999 V2000
   97.6120  -10.7150   68.4590 C   0  0  0  0  0  0  0  0  0  0  0  0
   99.2540   -7.0920   68.6550 C   0  0  0  0  0  0  0  0  0  0  0  0
   98.9580   -8.6210   68.0170 C   0  0  1  0  0  0  0  0  0  0  0  0
  103.1410   -7.5410   69.5790 C   0  0  1  0  0  0  0  0  0  0  0  0
   99.6920   -9.6740   68.9860 C   0  0  1  0  0  0  0  0  0  0  0  0
  103.4930   -6.0610   70.2960 C   0  0  0  0  0  0  0  0  0  0  0  0
  100.6960   -6.7720   68.7480 C   0  0  0  0  0  0  0  0  0  0  0  0
   99.0100  -11.0200   68.8610 C   0  0  0  0  0  0  0  0  0  0  0  0
   97.4940   -9.1360   68.2300 C   0  0  2  0  0  0  0  0  0  0  0  0
   99.4770   -8.7190   66.4780 C   0  0  0  0  0  0  0  0  0  0  0  0
  103.7270   -7.5320   68.1080 C   0  0  0  0  0  0  0  0  0  0  0  0
  104.9890   -5.8820   70.8120 C   0  0  0  0  0  0  0  0  0  0  0  0
   96.6240   -8.5360   69.4800 C   0  0  0  0  0  0  0  0  0  0  0  0
   95.5200   -7.5980   68.7610 C   0  0  0  0  0  0  0  0  0  0  0  0
   95.8030   -7.8420   67.2480 C   0  0  0  0  0  0  0  0  0  0  0  0
  101.4090  -12.0880   72.5600 C   0  0  0  0  0  0  0  0  0  0  0  0
  100.6450  -12.6060   73.7690 C   0  0  0  0  0  0  0  0  0  0  0  0
  105.5300   -7.1540   71.5720 C   0  0  0  0  0  0  0  0  0  0  0  0
  104.9960   -8.5370   71.3310 C   0  0  0  0  0  0  0  0  0  0  0  0
  103.9740   -8.8060   70.3630 C   0  0  0  0  0  0  0  0  0  0  0  0
  103.5030  -10.3050   70.0750 C   0  0  0  0  0  0  0  0  0  0  0  0
  102.0270  -10.4980   69.9960 C   0  0  2  0  0  0  0  0  0  0  0  0
  101.2710   -9.4710   69.0480 C   0  0  2  0  0  0  0  0  0  0  0  0
  101.5750   -7.8850   69.5750 C   0  0  1  0  0  0  0  0  0  0  0  0
   95.3650   -7.1620   66.3490 O   0  0  0  0  0  0  0  0  0  0  0  0
   96.6830   -8.9340   67.0880 O   0  0  0  0  0  0  0  0  0  0  0  0
  102.2870  -12.7990   72.0860 O   0  0  0  0  0  0  0  0  0  0  0  0
  106.3890   -6.9600   72.3890 O   0  0  0  0  0  0  0  0  0  0  0  0
  101.0880  -10.4220   71.8480 S   0  0  0  0  0  0  0  0  0  0  0  0
   97.3676  -11.2462   67.5273 H   0  0  0  0  0  0  0  0  0  0  0  0
   96.9108  -11.0400   69.2418 H   0  0  0  0  0  0  0  0  0  0  0  0
   98.7700   -6.3437   68.0102 H   0  0  0  0  0  0  0  0  0  0  0  0
   98.8480   -7.0784   69.6772 H   0  0  0  0  0  0  0  0  0  0  0  0
   99.5516   -9.4960   70.0624 H   0  0  0  0  0  0  0  0  0  0  0  0
  103.2938   -5.2714   69.5566 H   0  0  0  0  0  0  0  0  0  0  0  0
  102.8578   -6.0034   71.1922 H   0  0  0  0  0  0  0  0  0  0  0  0
  101.1009   -6.7001   67.7277 H   0  0  0  0  0  0  0  0  0  0  0  0
  100.7769   -5.8260   69.3034 H   0  0  0  0  0  0  0  0  0  0  0  0
   99.0269  -11.5515   69.8239 H   0  0  0  0  0  0  0  0  0  0  0  0
   99.5146  -11.6693   68.1304 H   0  0  0  0  0  0  0  0  0  0  0  0
  100.5579   -8.9231   66.4678 H   0  0  0  0  0  0  0  0  0  0  0  0
   98.9454   -9.5326   65.9629 H   0  0  0  0  0  0  0  0  0  0  0  0
   99.2787   -7.7675   65.9629 H   0  0  0  0  0  0  0  0  0  0  0  0
  104.8260   -7.5151   68.1512 H   0  0  0  0  0  0  0  0  0  0  0  0
  103.3948   -8.4354   67.5754 H   0  0  0  0  0  0  0  0  0  0  0  0
  103.3672   -6.6393   67.5754 H   0  0  0  0  0  0  0  0  0  0  0  0
  105.6386   -5.6874   69.9459 H   0  0  0  0  0  0  0  0  0  0  0  0
  104.9956   -5.0433   71.5237 H   0  0  0  0  0  0  0  0  0  0  0  0
   96.1417   -9.3458   70.0471 H   0  0  0  0  0  0  0  0  0  0  0  0
   97.2422   -7.9879   70.2063 H   0  0  0  0  0  0  0  0  0  0  0  0
   94.4994   -7.9082   69.0295 H   0  0  0  0  0  0  0  0  0  0  0  0
   95.5861   -6.5398   69.0541 H   0  0  0  0  0  0  0  0  0  0  0  0
  101.1431  -12.2683   74.6898 H   0  0  0  0  0  0  0  0  0  0  0  0
   99.6157  -12.2188   73.7458 H   0  0  0  0  0  0  0  0  0  0  0  0
  100.6237  -13.7055   73.7458 H   0  0  0  0  0  0  0  0  0  0  0  0
  105.4038   -9.3730   71.9183 H   0  0  0  0  0  0  0  0  0  0  0  0
  103.9402  -10.6218   69.1166 H   0  0  0  0  0  0  0  0  0  0  0  0
  103.8458  -10.9045   70.9312 H   0  0  0  0  0  0  0  0  0  0  0  0
  101.9494  -11.5067   69.5642 H   0  0  0  0  0  0  0  0  0  0  0  0
  101.6628   -9.6573   68.0371 H   0  0  0  0  0  0  0  0  0  0  0  0
  101.2370   -7.8320   70.6204 H   0  0  0  0  0  0  0  0  0  0  0  0
  2  3  1  0
  3  5  1  0
  4  6  1  0
  2  7  1  0
  1  8  1  0
  5  8  1  0
  1  9  1  0
  3  9  1  0
  3 10  1  6
  4 11  1  6
  6 12  1  0
  9 13  1  0
 13 14  1  0
 14 15  1  0
 16 17  1  0
 12 18  1  0
 18 19  1  0
  4 20  1  0
 19 20  2  0
 20 21  1  0
 21 22  1  0
  5 23  1  0
 22 23  1  0
  4 24  1  0
  7 24  1  0
 23 24  1  0
 15 25  2  0
  9 26  1  6
 15 26  1  0
 16 27  2  0
 18 28  2  0
 16 29  1  0
 22 29  1  0
  1 30  1  0
  1 31  1  0
  2 32  1  0
  2 33  1  0
  5 34  1  1
  6 35  1  0
  6 36  1  0
  7 37  1  0
  7 38  1  0
  8 39  1  0
  8 40  1  0
 10 41  1  0
 10 42  1  0
 10 43  1  0
 11 44  1  0
 11 45  1  0
 11 46  1  0
 12 47  1  0
 12 48  1  0
 13 49  1  0
 13 50  1  0
 14 51  1  0
 14 52  1  0
 17 53  1  0
 17 54  1  0
 17 55  1  0
 19 56  1  0
 21 57  1  0
 21 58  1  0
 22 59  1  6
 23 60  1  6
 24 61  1  1
M  END
$$$$
