PDB_DB01044_98
     RDKit          3D

 49 52  0  0  0  0  0  0  0  0999 V2000
  152.4480    0.4660   21.9090 C   0  0  0  0  0  0  0  0  0  0  0  0
  151.6490    1.4280   21.0180 C   0  0  1  0  0  0  0  0  0  0  0  0
  150.2470    1.6080   21.5850 C   0  0  0  0  0  0  0  0  0  0  0  0
  149.5230    2.6020   20.8470 N   0  0  0  0  0  0  0  0  0  0  0  0
  150.1940    3.8460   20.6610 C   0  0  0  0  0  0  0  0  0  0  0  0
  151.6180    3.6310   20.1550 C   0  0  0  0  0  0  0  0  0  0  0  0
  152.3360    2.6750   20.9410 N   0  0  0  0  0  0  0  0  0  0  0  0
  148.0700    2.6850   21.0410 C   0  0  0  0  0  0  0  0  0  0  0  0
  147.2950    2.8140   19.8950 C   0  0  0  0  0  0  0  0  0  0  0  0
  145.9090    2.8970   19.9890 C   0  0  0  0  0  0  0  0  0  0  0  0
  145.2670    2.8460   21.2480 C   0  0  0  0  0  0  0  0  0  0  0  0
  146.0140    2.7170   22.4070 C   0  0  0  0  0  0  0  0  0  0  0  0
  147.4420    2.6310   22.2950 C   0  0  0  0  0  0  0  0  0  0  0  0
  148.2630    2.5100   23.4380 O   0  0  0  0  0  0  0  0  0  0  0  0
  148.6570    3.7890   23.9390 C   0  0  0  0  0  0  0  0  0  0  0  0
  145.3150    2.6760   23.6090 N   0  0  0  0  0  0  0  0  0  0  0  0
  143.9690    2.7560   23.6530 C   0  0  0  0  0  0  0  0  0  0  0  0
  143.2000    2.8900   22.5030 C   0  0  0  0  0  0  0  0  0  0  0  0
  143.8500    2.9320   21.2720 C   0  0  0  0  0  0  0  0  0  0  0  0
  143.2080    3.0460   20.2400 O   0  0  0  0  0  0  0  0  0  0  0  0
  141.6860    2.9670   22.6210 C   0  0  0  0  0  0  0  0  0  0  0  0
  140.9530    2.6810   21.6320 O   0  0  0  0  0  0  0  0  0  0  0  0
  141.1650    3.2960   23.7240 O   0  0  0  0  0  0  0  0  0  0  0  0
  145.9650    2.5290   24.8910 C   0  0  0  0  0  0  0  0  0  0  0  0
  146.7030    1.4420   25.6610 C   0  0  0  0  0  0  0  0  0  0  0  0
  145.2470    1.7150   25.9620 C   0  0  0  0  0  0  0  0  0  0  0  0
  147.9000    2.8620   18.6980 F   0  0  0  0  0  0  0  0  0  0  0  0
  152.2543    0.6992   22.9664 H   0  0  0  0  0  0  0  0  0  0  0  0
  152.1401   -0.5690   21.6995 H   0  0  0  0  0  0  0  0  0  0  0  0
  153.5220    0.5787   21.6995 H   0  0  0  0  0  0  0  0  0  0  0  0
  151.5568    1.0142   20.0030 H   0  0  0  0  0  0  0  0  0  0  0  0
  149.7082    0.6509   21.5253 H   0  0  0  0  0  0  0  0  0  0  0  0
  150.3294    1.9363   22.6316 H   0  0  0  0  0  0  0  0  0  0  0  0
  149.6386    4.4477   19.9265 H   0  0  0  0  0  0  0  0  0  0  0  0
  150.2416    4.3659   21.6292 H   0  0  0  0  0  0  0  0  0  0  0  0
  151.5737    3.2726   19.1160 H   0  0  0  0  0  0  0  0  0  0  0  0
  152.1488    4.5918   20.2268 H   0  0  0  0  0  0  0  0  0  0  0  0
  152.4554    3.0490   21.8933 H   0  0  0  0  0  0  0  0  0  0  0  0
  145.3067    3.0034   19.0747 H   0  0  0  0  0  0  0  0  0  0  0  0
  148.6511    3.7697   25.0388 H   0  0  0  0  0  0  0  0  0  0  0  0
  149.6700    4.0265   23.5819 H   0  0  0  0  0  0  0  0  0  0  0  0
  147.9533    4.5553   23.5819 H   0  0  0  0  0  0  0  0  0  0  0  0
  143.4644    2.7139   24.6295 H   0  0  0  0  0  0  0  0  0  0  0  0
  139.9678    2.7329   21.7146 H   0  0  0  0  0  0  0  0  0  0  0  0
  146.3435    3.5236   24.6126 H   0  0  0  0  0  0  0  0  0  0  0  0
  146.9934    0.5104   25.1534 H   0  0  0  0  0  0  0  0  0  0  0  0
  147.6253    1.4050   26.2593 H   0  0  0  0  0  0  0  0  0  0  0  0
  144.9620    2.1885   26.9131 H   0  0  0  0  0  0  0  0  0  0  0  0
  144.3322    1.1048   25.9907 H   0  0  0  0  0  0  0  0  0  0  0  0
  1  2  1  0
  2  3  1  0
  3  4  1  0
  4  5  1  0
  5  6  1  0
  2  7  1  0
  6  7  1  0
  4  8  1  0
  8  9  2  0
  9 10  1  0
 10 11  2  0
 11 12  1  0
  8 13  1  0
 12 13  2  0
 13 14  1  0
 14 15  1  0
 12 16  1  0
 16 17  1  0
 17 18  2  0
 11 19  1  0
 18 19  1  0
 19 20  2  0
 18 21  1  0
 21 22  1  0
 21 23  2  0
 16 24  1  0
 24 25  1  0
 24 26  1  0
 25 26  1  0
  9 27  1  0
  1 28  1  0
  1 29  1  0
  1 30  1  0
  2 31  1  6
  3 32  1  0
  3 33  1  0
  5 34  1  0
  5 35  1  0
  6 36  1  0
  6 37  1  0
  7 38  1  0
 10 39  1  0
 15 40  1  0
 15 41  1  0
 15 42  1  0
 17 43  1  0
 22 44  1  0
 24 45  1  0
 25 46  1  0
 25 47  1  0
 26 48  1  0
 26 49  1  0
M  END
$$$$
