PDB_DB00255_93
     RDKit          3D

 40 41  0  0  0  0  0  0  0  0999 V2000
   58.7980   66.3470   11.1870 C   0  0  0  0  0  0  0  0  0  0  0  0
   58.0780   65.4180   12.1110 C   0  0  0  0  0  0  0  0  0  0  0  0
   58.9640   64.5210   13.0090 C   0  0  0  0  0  0  0  0  0  0  0  0
   59.7380   65.3010   14.0870 C   0  0  0  0  0  0  0  0  0  0  0  0
   59.2870   65.3590   15.4490 C   0  0  0  0  0  0  0  0  0  0  0  0
   60.0400   66.0900   16.4300 C   0  0  0  0  0  0  0  0  0  0  0  0
   61.2330   66.7560   16.0430 C   0  0  0  0  0  0  0  0  0  0  0  0
   61.9960   67.4700   16.9400 O   0  0  0  0  0  0  0  0  0  0  0  0
   61.6940   66.7110   14.7030 C   0  0  0  0  0  0  0  0  0  0  0  0
   60.9480   65.9880   13.7470 C   0  0  0  0  0  0  0  0  0  0  0  0
   59.0650   63.1740   12.8830 C   0  0  0  0  0  0  0  0  0  0  0  0
   58.3150   62.3660   11.8090 C   0  0  0  0  0  0  0  0  0  0  0  0
   58.8570   62.2560   10.4910 C   0  0  0  0  0  0  0  0  0  0  0  0
   58.1810   61.5030    9.4780 C   0  0  0  0  0  0  0  0  0  0  0  0
   56.9670   60.8580    9.7840 C   0  0  0  0  0  0  0  0  0  0  0  0
   56.2840   60.1160    8.8340 O   0  0  0  0  0  0  0  0  0  0  0  0
   56.4030   60.9530   11.0950 C   0  0  0  0  0  0  0  0  0  0  0  0
   57.0860   61.7050   12.0920 C   0  0  0  0  0  0  0  0  0  0  0  0
   59.9330   62.2650   13.7740 C   0  0  0  0  0  0  0  0  0  0  0  0
   59.2070   61.6740   14.9640 C   0  0  0  0  0  0  0  0  0  0  0  0
   59.3672   67.0815   11.7757 H   0  0  0  0  0  0  0  0  0  0  0  0
   59.4882   65.7713   10.5527 H   0  0  0  0  0  0  0  0  0  0  0  0
   58.0684   66.8717   10.5527 H   0  0  0  0  0  0  0  0  0  0  0  0
   57.4415   66.0271   12.7697 H   0  0  0  0  0  0  0  0  0  0  0  0
   57.5254   64.7256   11.4589 H   0  0  0  0  0  0  0  0  0  0  0  0
   58.3615   64.8418   15.7423 H   0  0  0  0  0  0  0  0  0  0  0  0
   59.6949   66.1335   17.4736 H   0  0  0  0  0  0  0  0  0  0  0  0
   62.8226   67.9226   16.6366 H   0  0  0  0  0  0  0  0  0  0  0  0
   62.6186   67.2314   14.4127 H   0  0  0  0  0  0  0  0  0  0  0  0
   61.3074   65.9511   12.7080 H   0  0  0  0  0  0  0  0  0  0  0  0
   59.8067   62.7568   10.2516 H   0  0  0  0  0  0  0  0  0  0  0  0
   58.6074   61.4287    8.4667 H   0  0  0  0  0  0  0  0  0  0  0  0
   55.4321   59.6712    9.0719 H   0  0  0  0  0  0  0  0  0  0  0  0
   55.4529   60.4510   11.3299 H   0  0  0  0  0  0  0  0  0  0  0  0
   56.6556   61.7770   13.1017 H   0  0  0  0  0  0  0  0  0  0  0  0
   60.3103   61.4370   13.1558 H   0  0  0  0  0  0  0  0  0  0  0  0
   60.7351   62.8988   14.1801 H   0  0  0  0  0  0  0  0  0  0  0  0
   59.6633   62.0455   15.8934 H   0  0  0  0  0  0  0  0  0  0  0  0
   58.1481   61.9701   14.9316 H   0  0  0  0  0  0  0  0  0  0  0  0
   59.2821   60.5770   14.9316 H   0  0  0  0  0  0  0  0  0  0  0  0
  1  2  1  0
  2  3  1  0
  3  4  1  0
  4  5  2  0
  5  6  1  0
  6  7  2  0
  7  8  1  0
  7  9  1  0
  4 10  1  0
  9 10  2  0
  3 11  2  0
 11 12  1  0
 12 13  2  0
 13 14  1  0
 14 15  2  0
 15 16  1  0
 15 17  1  0
 12 18  1  0
 17 18  2  0
 11 19  1  0
 19 20  1  0
  1 21  1  0
  1 22  1  0
  1 23  1  0
  2 24  1  0
  2 25  1  0
  5 26  1  0
  6 27  1  0
  8 28  1  0
  9 29  1  0
 10 30  1  0
 13 31  1  0
 14 32  1  0
 16 33  1  0
 17 34  1  0
 18 35  1  0
 19 36  1  0
 19 37  1  0
 20 38  1  0
 20 39  1  0
 20 40  1  0
M  END
$$$$
