PDB_DB08954_99
     RDKit          3D

 51 53  0  0  0  0  0  0  0  0999 V2000
    5.7780   32.6080   16.6540 C   0  0  0  0  0  0  0  0  0  0  0  0
   -0.7350   31.5330   12.2890 N   0  0  0  0  0  0  0  0  0  0  0  0
   -1.1700   31.7200    9.3200 O   0  0  0  0  0  0  0  0  0  0  0  0
   -5.5280   29.9670    9.8550 C   0  0  0  0  0  0  0  0  0  0  0  0
   -7.3140   30.5720    8.2720 O   0  0  0  0  0  0  0  0  0  0  0  0
   -5.2180   31.6080    8.1830 C   0  0  0  0  0  0  0  0  0  0  0  0
    3.6320   31.2730   15.4500 C   0  0  0  0  0  0  0  0  0  0  0  0
    4.8270   31.4200   14.7510 C   0  0  0  0  0  0  0  0  0  0  0  0
    5.9070   32.0850   15.3420 C   0  0  0  0  0  0  0  0  0  0  0  0
    2.5080   30.5110   14.8230 C   0  0  0  0  0  0  0  0  0  0  0  0
    1.1970   31.2970   14.3970 C   0  0  0  0  0  0  0  0  0  0  0  0
    1.4710   32.1660   13.2800 C   0  0  0  0  0  0  0  0  0  0  0  0
    4.5870   32.4560   17.3550 C   0  0  0  0  0  0  0  0  0  0  0  0
    3.5100   31.7800   16.7640 C   0  0  0  0  0  0  0  0  0  0  0  0
    0.2320   32.6220   12.5610 C   0  0  0  0  0  0  0  0  0  0  0  0
   -0.9710   30.6080   13.3630 C   0  0  0  0  0  0  0  0  0  0  0  0
    0.2680   30.1960   14.0670 C   0  0  0  0  0  0  0  0  0  0  0  0
   -1.8560   32.0430   11.4820 C   0  0  2  0  0  0  0  0  0  0  0  0
   -1.9680   31.3460   10.1650 C   0  0  1  0  0  0  0  0  0  0  0  0
   -3.3990   31.0530    9.7060 C   0  0  0  0  0  0  0  0  0  0  0  0
   -4.1970   30.1620   10.3210 C   0  0  0  0  0  0  0  0  0  0  0  0
   -6.0000   30.7180    8.7700 C   0  0  0  0  0  0  0  0  0  0  0  0
   -3.8890   31.7970    8.6600 C   0  0  0  0  0  0  0  0  0  0  0  0
   -1.7340   33.4670   11.1410 C   0  0  0  0  0  0  0  0  0  0  0  0
    6.6237   33.1360   17.1188 H   0  0  0  0  0  0  0  0  0  0  0  0
   -0.3694   32.0952    9.7653 H   0  0  0  0  0  0  0  0  0  0  0  0
   -6.1826   29.2306   10.3441 H   0  0  0  0  0  0  0  0  0  0  0  0
   -7.6157   31.1184    7.5036 H   0  0  0  0  0  0  0  0  0  0  0  0
   -5.5908   32.1980    7.3328 H   0  0  0  0  0  0  0  0  0  0  0  0
    4.9222   31.0131   13.7335 H   0  0  0  0  0  0  0  0  0  0  0  0
    6.8521   32.2017   14.7914 H   0  0  0  0  0  0  0  0  0  0  0  0
    2.9074   30.0328   13.9165 H   0  0  0  0  0  0  0  0  0  0  0  0
    2.1662   29.8355   15.6210 H   0  0  0  0  0  0  0  0  0  0  0  0
    0.7884   31.9689   15.1661 H   0  0  0  0  0  0  0  0  0  0  0  0
    2.0053   33.0530   13.6511 H   0  0  0  0  0  0  0  0  0  0  0  0
    2.0712   31.5903   12.5600 H   0  0  0  0  0  0  0  0  0  0  0  0
    4.4898   32.8653   18.3714 H   0  0  0  0  0  0  0  0  0  0  0  0
    2.5717   31.6444   17.3219 H   0  0  0  0  0  0  0  0  0  0  0  0
    0.5320   33.0676   11.6010 H   0  0  0  0  0  0  0  0  0  0  0  0
   -0.2740   33.3434   13.2194 H   0  0  0  0  0  0  0  0  0  0  0  0
   -1.6445   31.0834   14.0913 H   0  0  0  0  0  0  0  0  0  0  0  0
   -1.4107   29.7017   12.9210 H   0  0  0  0  0  0  0  0  0  0  0  0
    0.8024   29.4799   13.4254 H   0  0  0  0  0  0  0  0  0  0  0  0
   -0.0535   29.7680   15.0279 H   0  0  0  0  0  0  0  0  0  0  0  0
   -2.7308   31.8653   12.1248 H   0  0  0  0  0  0  0  0  0  0  0  0
   -1.6063   30.3254   10.3590 H   0  0  0  0  0  0  0  0  0  0  0  0
   -3.8228   29.5864   11.1804 H   0  0  0  0  0  0  0  0  0  0  0  0
   -3.2449   32.5506    8.1833 H   0  0  0  0  0  0  0  0  0  0  0  0
   -1.6830   34.0622   12.0647 H   0  0  0  0  0  0  0  0  0  0  0  0
   -0.8190   33.6258   10.5515 H   0  0  0  0  0  0  0  0  0  0  0  0
   -2.6087   33.7791   10.5515 H   0  0  0  0  0  0  0  0  0  0  0  0
  7  8  2  0
  1  9  2  0
  8  9  1  0
  7 10  1  0
 10 11  1  0
 11 12  1  0
  1 13  1  0
  7 14  1  0
 13 14  2  0
  2 15  1  0
 12 15  1  0
  2 16  1  0
 11 17  1  0
 16 17  1  0
  2 18  1  0
  3 19  1  0
 18 19  1  0
 19 20  1  0
  4 21  2  0
 20 21  1  0
  4 22  1  0
  5 22  1  0
  6 22  2  0
  6 23  1  0
 20 23  2  0
 18 24  1  0
  1 25  1  0
  3 26  1  0
  4 27  1  0
  5 28  1  0
  6 29  1  0
  8 30  1  0
  9 31  1  0
 10 32  1  0
 10 33  1  0
 11 34  1  0
 12 35  1  0
 12 36  1  0
 13 37  1  0
 14 38  1  0
 15 39  1  0
 15 40  1  0
 16 41  1  0
 16 42  1  0
 17 43  1  0
 17 44  1  0
 18 45  1  1
 19 46  1  1
 21 47  1  0
 23 48  1  0
 24 49  1  0
 24 50  1  0
 24 51  1  0
M  END
$$$$
