PDB_DB00936_96
     RDKit          3D

 16 16  0  0  0  0  0  0  0  0999 V2000
   38.1950   15.8550  196.3010 C   0  0  0  0  0  0  0  0  0  0  0  0
   39.2220   15.3830  195.8160 O   0  0  0  0  0  0  0  0  0  0  0  0
   37.4720   15.2950  197.1180 O   0  0  0  0  0  0  0  0  0  0  0  0
   37.8030   17.1980  195.9100 C   0  0  0  0  0  0  0  0  0  0  0  0
   36.6200   17.7910  196.5210 C   0  0  0  0  0  0  0  0  0  0  0  0
   36.2890   19.0600  196.1450 C   0  0  0  0  0  0  0  0  0  0  0  0
   37.0560   19.7240  195.2270 C   0  0  0  0  0  0  0  0  0  0  0  0
   38.1660   19.1400  194.6680 C   0  0  0  0  0  0  0  0  0  0  0  0
   38.5510   17.8710  195.0040 C   0  0  0  0  0  0  0  0  0  0  0  0
   35.8640   17.1180  197.4250 O   0  0  0  0  0  0  0  0  0  0  0  0
   36.6612   15.7514  197.4563 H   0  0  0  0  0  0  0  0  0  0  0  0
   35.4052   19.5495  196.5800 H   0  0  0  0  0  0  0  0  0  0  0  0
   36.7779   20.7462  194.9308 H   0  0  0  0  0  0  0  0  0  0  0  0
   38.7588   19.7051  193.9337 H   0  0  0  0  0  0  0  0  0  0  0  0
   39.4419   17.4110  194.5515 H   0  0  0  0  0  0  0  0  0  0  0  0
   35.0661   17.5492  197.8218 H   0  0  0  0  0  0  0  0  0  0  0  0
  1  2  2  0
  1  3  1  0
  1  4  1  0
  4  5  2  0
  5  6  1  0
  6  7  2  0
  7  8  1  0
  4  9  1  0
  8  9  2  0
  5 10  1  0
  3 11  1  0
  6 12  1  0
  7 13  1  0
  8 14  1  0
  9 15  1  0
 10 16  1  0
M  END
$$$$
