PDB_DB00537_97
     RDKit          3D

 42 45  0  0  0  0  0  0  0  0999 V2000
   29.0120   37.7000  -12.6800 O   0  0  0  0  0  0  0  0  0  0  0  0
   29.2820   36.2740  -12.8560 C   0  0  0  0  0  0  0  0  0  0  0  0
   29.5410   35.5970  -11.8580 O   0  0  0  0  0  0  0  0  0  0  0  0
   29.2400   35.6790  -14.2530 C   0  0  0  0  0  0  0  0  0  0  0  0
   29.4900   34.3250  -14.5370 C   0  0  0  0  0  0  0  0  0  0  0  0
   29.4360   33.8550  -15.8120 N   0  0  0  0  0  0  0  0  0  0  0  0
   29.1490   34.6860  -16.8410 C   0  0  0  0  0  0  0  0  0  0  0  0
   29.0910   34.2250  -18.1600 C   0  0  0  0  0  0  0  0  0  0  0  0
   28.7860   35.1040  -19.2100 C   0  0  0  0  0  0  0  0  0  0  0  0
   28.7350   34.6260  -20.5370 N   0  0  0  0  0  0  0  0  0  0  0  0
   28.6180   33.1870  -20.7480 C   0  0  0  0  0  0  0  0  0  0  0  0
   28.0180   32.9280  -22.1290 C   0  0  0  0  0  0  0  0  0  0  0  0
   28.6950   33.6800  -23.1750 N   0  0  0  0  0  0  0  0  0  0  0  0
   29.4830   34.8350  -22.8070 C   0  0  0  0  0  0  0  0  0  0  0  0
   28.7950   35.5650  -21.6620 C   0  0  0  0  0  0  0  0  0  0  0  0
   28.5460   36.4540  -18.9410 C   0  0  0  0  0  0  0  0  0  0  0  0
   28.2480   37.3400  -19.9250 F   0  0  0  0  0  0  0  0  0  0  0  0
   28.6070   36.9070  -17.6300 C   0  0  0  0  0  0  0  0  0  0  0  0
   28.9050   36.0300  -16.5980 C   0  0  0  0  0  0  0  0  0  0  0  0
   28.9540   36.5210  -15.3090 C   0  0  0  0  0  0  0  0  0  0  0  0
   28.7030   37.8460  -15.0980 O   0  0  0  0  0  0  0  0  0  0  0  0
   29.6980   32.4270  -16.1160 C   0  0  0  0  0  0  0  0  0  0  0  0
   30.3050   31.6820  -14.9240 C   0  0  0  0  0  0  0  0  0  0  0  0
   28.8310   31.5340  -15.2370 C   0  0  0  0  0  0  0  0  0  0  0  0
   28.8017   38.2646  -13.4655 H   0  0  0  0  0  0  0  0  0  0  0  0
   29.7330   33.6352  -13.7153 H   0  0  0  0  0  0  0  0  0  0  0  0
   29.2862   33.1642  -18.3760 H   0  0  0  0  0  0  0  0  0  0  0  0
   29.6140   32.7242  -20.6871 H   0  0  0  0  0  0  0  0  0  0  0  0
   27.9670   32.7523  -19.9752 H   0  0  0  0  0  0  0  0  0  0  0  0
   28.1006   31.8546  -22.3550 H   0  0  0  0  0  0  0  0  0  0  0  0
   26.9676   33.2539  -22.1062 H   0  0  0  0  0  0  0  0  0  0  0  0
   29.3262   33.0249  -23.6579 H   0  0  0  0  0  0  0  0  0  0  0  0
   30.4845   34.5108  -22.4879 H   0  0  0  0  0  0  0  0  0  0  0  0
   29.5779   35.5087  -23.6713 H   0  0  0  0  0  0  0  0  0  0  0  0
   27.7794   35.8648  -21.9598 H   0  0  0  0  0  0  0  0  0  0  0  0
   29.3460   36.4764  -21.3868 H   0  0  0  0  0  0  0  0  0  0  0  0
   28.4178   37.9678  -17.4087 H   0  0  0  0  0  0  0  0  0  0  0  0
   29.9377   32.5024  -17.1869 H   0  0  0  0  0  0  0  0  0  0  0  0
   30.9906   30.8387  -15.0939 H   0  0  0  0  0  0  0  0  0  0  0  0
   30.8859   31.9759  -14.0374 H   0  0  0  0  0  0  0  0  0  0  0  0
   28.0807   31.9833  -14.5697 H   0  0  0  0  0  0  0  0  0  0  0  0
   28.1599   30.6821  -15.4214 H   0  0  0  0  0  0  0  0  0  0  0  0
  2  1  1  0
  2  3  2  0
  2  4  1  0
  4  5  2  0
  5  6  1  0
  6  7  1  0
  7  8  1  0
  8  9  2  0
  9 10  1  0
 10 11  1  0
 11 12  1  0
 12 13  1  0
 13 14  1  0
 10 15  1  0
 14 15  1  0
  9 16  1  0
 16 17  1  0
 16 18  2  0
  7 19  2  0
 18 19  1  0
  4 20  1  0
 19 20  1  0
 20 21  2  0
  6 22  1  0
 22 23  1  0
 22 24  1  0
 23 24  1  0
  1 25  1  0
  5 26  1  0
  8 27  1  0
 11 28  1  0
 11 29  1  0
 12 30  1  0
 12 31  1  0
 13 32  1  0
 14 33  1  0
 14 34  1  0
 15 35  1  0
 15 36  1  0
 18 37  1  0
 22 38  1  0
 23 39  1  0
 23 40  1  0
 24 41  1  0
 24 42  1  0
M  END
$$$$
