PDB_DB06616_94
     RDKit          3D

 65 68  0  0  0  0  0  0  0  0999 V2000
    7.0890   -9.3370   28.4150 C   0  0  0  0  0  0  0  0  0  0  0  0
   10.8280   -4.4850   35.1590 O   0  0  0  0  0  0  0  0  0  0  0  0
    1.2990   -9.0870   26.6290 C   0  0  0  0  0  0  0  0  0  0  0  0
    9.1600   -1.6960   32.3270 N   0  0  0  0  0  0  0  0  0  0  0  0
   13.5520   -3.1590   34.3220 Cl  0  0  0  0  0  0  0  0  0  0  0  0
   11.6190   -3.7990   29.1500 Cl  0  0  0  0  0  0  0  0  0  0  0  0
    8.3240   -2.3330   31.8820 C   0  0  0  0  0  0  0  0  0  0  0  0
    5.8220   -2.7250   31.2490 C   0  0  0  0  0  0  0  0  0  0  0  0
   12.4380   -3.5440   31.7810 C   0  0  0  0  0  0  0  0  0  0  0  0
    9.9410   -4.7920   32.9090 C   0  0  0  0  0  0  0  0  0  0  0  0
    3.9740   -5.5370   29.2280 C   0  0  0  0  0  0  0  0  0  0  0  0
    6.7910   -6.6140   29.2630 C   0  0  0  0  0  0  0  0  0  0  0  0
    0.9590   -8.2470   27.8530 C   0  0  0  0  0  0  0  0  0  0  0  0
    1.9690   -7.1000   27.9860 C   0  0  0  0  0  0  0  0  0  0  0  0
   -3.4720   -9.2310   23.3770 C   0  0  0  0  0  0  0  0  0  0  0  0
   -0.0290   -8.2030   24.5700 C   0  0  0  0  0  0  0  0  0  0  0  0
   -1.1720   -9.2980   26.3610 C   0  0  0  0  0  0  0  0  0  0  0  0
   -1.0540   -8.7950   23.5790 C   0  0  0  0  0  0  0  0  0  0  0  0
   -2.1340   -9.9280   25.4000 C   0  0  0  0  0  0  0  0  0  0  0  0
    4.7820   -3.4840   30.5900 N   0  0  0  0  0  0  0  0  0  0  0  0
    8.9800   -5.1200   30.6050 N   0  0  0  0  0  0  0  0  0  0  0  0
    6.0060   -8.5830   27.9620 O   0  0  0  0  0  0  0  0  0  0  0  0
    3.2900   -7.5720   27.9090 O   0  0  0  0  0  0  0  0  0  0  0  0
   11.0340   -4.3240   33.8150 C   0  0  0  0  0  0  0  0  0  0  0  0
   12.2870   -3.6960   33.2630 C   0  0  0  0  0  0  0  0  0  0  0  0
   11.3530   -4.0080   30.8560 C   0  0  0  0  0  0  0  0  0  0  0  0
    7.2530   -3.2040   31.3010 C   0  0  0  0  0  0  0  0  0  0  0  0
   10.0880   -4.6370   31.4220 C   0  0  0  0  0  0  0  0  0  0  0  0
    5.6980   -7.3760   28.5740 C   0  0  0  0  0  0  0  0  0  0  0  0
    4.3040   -6.8480   28.5570 C   0  0  0  0  0  0  0  0  0  0  0  0
    7.6190   -4.5390   30.6410 C   0  0  0  0  0  0  0  0  0  0  0  0
    5.0640   -4.7440   29.9370 C   0  0  0  0  0  0  0  0  0  0  0  0
    6.4810   -5.3090   29.9430 C   0  0  0  0  0  0  0  0  0  0  0  0
    0.1100   -9.1160   25.7130 N   0  0  0  0  0  0  0  0  0  0  0  0
   -2.3060   -9.0900   24.2430 N   0  0  0  0  0  0  0  0  0  0  0  0
    9.5130   -4.3830   35.6180 C   0  0  0  0  0  0  0  0  0  0  0  0
    7.0973   -9.3428   29.5150 H   0  0  0  0  0  0  0  0  0  0  0  0
    6.9986  -10.3685   28.0436 H   0  0  0  0  0  0  0  0  0  0  0  0
    8.0250   -8.8943   28.0436 H   0  0  0  0  0  0  0  0  0  0  0  0
    2.1584   -8.6441   26.1044 H   0  0  0  0  0  0  0  0  0  0  0  0
    1.5552  -10.1108   26.9393 H   0  0  0  0  0  0  0  0  0  0  0  0
    5.5624   -1.7690   31.7272 H   0  0  0  0  0  0  0  0  0  0  0  0
   13.3506   -3.0891   31.3684 H   0  0  0  0  0  0  0  0  0  0  0  0
    9.0326   -5.2481   33.3295 H   0  0  0  0  0  0  0  0  0  0  0  0
    2.9434   -5.1532   29.2049 H   0  0  0  0  0  0  0  0  0  0  0  0
    7.8176   -7.0091   29.2709 H   0  0  0  0  0  0  0  0  0  0  0  0
   -0.0538   -7.8322   27.7426 H   0  0  0  0  0  0  0  0  0  0  0  0
    1.0020   -8.8781   28.7529 H   0  0  0  0  0  0  0  0  0  0  0  0
    1.7989   -6.3769   27.1747 H   0  0  0  0  0  0  0  0  0  0  0  0
    1.8269   -6.6241   28.9675 H   0  0  0  0  0  0  0  0  0  0  0  0
   -4.3760   -9.3403   23.9941 H   0  0  0  0  0  0  0  0  0  0  0  0
   -3.5673   -8.3378   22.7420 H   0  0  0  0  0  0  0  0  0  0  0  0
   -3.3517  -10.1211   22.7420 H   0  0  0  0  0  0  0  0  0  0  0  0
    0.9438   -8.0869   24.0697 H   0  0  0  0  0  0  0  0  0  0  0  0
   -0.3738   -7.2185   24.9191 H   0  0  0  0  0  0  0  0  0  0  0  0
   -1.5621   -8.3210   26.6824 H   0  0  0  0  0  0  0  0  0  0  0  0
   -1.0497   -9.9511   27.2376 H   0  0  0  0  0  0  0  0  0  0  0  0
   -1.2364   -8.0687   22.7733 H   0  0  0  0  0  0  0  0  0  0  0  0
   -0.6455   -9.7304   23.1690 H   0  0  0  0  0  0  0  0  0  0  0  0
   -1.7429  -10.9065   25.0843 H   0  0  0  0  0  0  0  0  0  0  0  0
   -3.1066  -10.0535   25.8983 H   0  0  0  0  0  0  0  0  0  0  0  0
    9.1546   -5.9097   29.9672 H   0  0  0  0  0  0  0  0  0  0  0  0
    9.5076   -4.3826   36.7180 H   0  0  0  0  0  0  0  0  0  0  0  0
    9.0673   -3.4476   35.2488 H   0  0  0  0  0  0  0  0  0  0  0  0
    8.9284   -5.2385   35.2488 H   0  0  0  0  0  0  0  0  0  0  0  0
  4  7  3  0
  3 13  1  0
 13 14  1  0
 16 18  1  0
 17 19  1  0
  8 20  2  0
  1 22  1  0
 14 23  1  0
  2 24  1  0
 10 24  2  0
  5 25  1  0
  9 25  2  0
 24 25  1  0
  6 26  1  0
  9 26  1  0
  7 27  1  0
  8 27  1  0
 10 28  1  0
 21 28  1  0
 26 28  2  0
 12 29  1  0
 22 29  1  0
 11 30  1  0
 23 30  1  0
 29 30  2  0
 21 31  1  0
 27 31  2  0
 11 32  2  0
 20 32  1  0
 12 33  2  0
 31 33  1  0
 32 33  1  0
  3 34  1  0
 16 34  1  0
 17 34  1  0
 15 35  1  0
 18 35  1  0
 19 35  1  0
  2 36  1  0
  1 37  1  0
  1 38  1  0
  1 39  1  0
  3 40  1  0
  3 41  1  0
  8 42  1  0
  9 43  1  0
 10 44  1  0
 11 45  1  0
 12 46  1  0
 13 47  1  0
 13 48  1  0
 14 49  1  0
 14 50  1  0
 15 51  1  0
 15 52  1  0
 15 53  1  0
 16 54  1  0
 16 55  1  0
 17 56  1  0
 17 57  1  0
 18 58  1  0
 18 59  1  0
 19 60  1  0
 19 61  1  0
 21 62  1  0
 36 63  1  0
 36 64  1  0
 36 65  1  0
M  END
$$$$
