PDB_DB01273_96
     RDKit          3D

 29 32  0  0  0  0  0  0  0  0999 V2000
    0.0950   20.8390   12.1420 C   0  0  0  0  0  0  0  0  0  0  0  0
    1.3540   20.0180   12.2160 N   0  0  0  0  0  0  0  0  0  0  0  0
    1.3370   18.7510   11.3510 C   0  0  0  0  0  0  0  0  0  0  0  0
    0.0390   18.1370   11.4710 C   0  0  2  0  0  0  0  0  0  0  0  0
   -1.0320   19.0730   11.0910 C   0  0  0  0  0  0  0  0  0  0  0  0
   -1.1520   20.0630   12.1270 C   0  0  1  0  0  0  0  0  0  0  0  0
   -1.0120   19.1570   13.1810 C   0  0  0  0  0  0  0  0  0  0  0  0
   -1.4950   19.2680   14.5150 C   0  0  0  0  0  0  0  0  0  0  0  0
   -1.2670   18.2300   15.4720 C   0  0  0  0  0  0  0  0  0  0  0  0
   -1.7560   18.3620   16.7800 N   0  0  0  0  0  0  0  0  0  0  0  0
   -1.5170   17.3720   17.6710 C   0  0  0  0  0  0  0  0  0  0  0  0
   -0.8000   16.2350   17.3300 C   0  0  0  0  0  0  0  0  0  0  0  0
   -0.3300   16.1160   16.0690 N   0  0  0  0  0  0  0  0  0  0  0  0
   -0.5650   17.1360   15.1380 C   0  0  0  0  0  0  0  0  0  0  0  0
   -0.0690   16.9990   13.8240 C   0  0  0  0  0  0  0  0  0  0  0  0
   -0.2970   18.0140   12.8450 C   0  0  0  0  0  0  0  0  0  0  0  0
    0.0710   21.5065   13.0160 H   0  0  0  0  0  0  0  0  0  0  0  0
    0.1343   21.3764   11.1830 H   0  0  0  0  0  0  0  0  0  0  0  0
    2.1411   20.6071   11.9088 H   0  0  0  0  0  0  0  0  0  0  0  0
    1.5273   19.0156   10.3004 H   0  0  0  0  0  0  0  0  0  0  0  0
    2.1182   18.0531   11.6867 H   0  0  0  0  0  0  0  0  0  0  0  0
    0.0990   17.2128   10.8775 H   0  0  0  0  0  0  0  0  0  0  0  0
   -0.7797   19.5603   10.1377 H   0  0  0  0  0  0  0  0  0  0  0  0
   -1.9827   18.5333   10.9692 H   0  0  0  0  0  0  0  0  0  0  0  0
   -2.0175   20.7408   12.0899 H   0  0  0  0  0  0  0  0  0  0  0  0
   -2.0530   20.1672   14.8151 H   0  0  0  0  0  0  0  0  0  0  0  0
   -1.9029   17.4721   18.6962 H   0  0  0  0  0  0  0  0  0  0  0  0
   -0.6173   15.4444   18.0727 H   0  0  0  0  0  0  0  0  0  0  0  0
    0.5007   16.0988   13.5500 H   0  0  0  0  0  0  0  0  0  0  0  0
  1  2  1  0
  2  3  1  0
  3  4  1  0
  4  5  1  0
  1  6  1  0
  5  6  1  0
  6  7  1  0
  7  8  1  0
  8  9  2  0
  9 10  1  0
 10 11  2  0
 11 12  1  0
 12 13  2  0
  9 14  1  0
 13 14  1  0
 14 15  2  0
  4 16  1  0
  7 16  2  0
 15 16  1  0
  1 17  1  0
  1 18  1  0
  2 19  1  0
  3 20  1  0
  3 21  1  0
  4 22  1  6
  5 23  1  0
  5 24  1  0
  6 25  1  1
  8 26  1  0
 11 27  1  0
 12 28  1  0
 15 29  1  0
M  END
$$$$
