PDB_DB01586_99
     RDKit          3D

 68 71  0  0  0  0  0  0  0  0999 V2000
   -3.1600   30.1750   40.6320 C   0  0  0  0  0  0  0  0  0  0  0  0
   -2.7970   31.5840   40.0290 C   0  0  1  0  0  0  0  0  0  0  0  0
   -2.5350   30.7190   37.5720 C   0  0  0  0  0  0  0  0  0  0  0  0
   -1.6100   30.6370   36.3000 C   0  0  0  0  0  0  0  0  0  0  0  0
   -1.2770   32.0380   35.7320 C   0  0  1  0  0  0  0  0  0  0  0  0
   -0.5680   32.7880   36.9240 C   0  0  1  0  0  0  0  0  0  0  0  0
   -0.0640   34.1200   36.2650 C   0  0  0  0  0  0  0  0  0  0  0  0
    0.2850   33.6740   34.8060 C   0  0  0  0  0  0  0  0  0  0  0  0
   -0.0880   32.1380   34.7120 C   0  0  2  0  0  0  0  0  0  0  0  0
   -2.5710   32.8060   35.2220 C   0  0  0  0  0  0  0  0  0  0  0  0
   -4.1550   32.3090   39.7360 C   0  0  0  0  0  0  0  0  0  0  0  0
   -0.3770   35.0240   39.0180 O   0  0  0  0  0  0  0  0  0  0  0  0
    0.0500   29.4320   42.5460 O   0  0  0  0  0  0  0  0  0  0  0  0
   -1.9110   29.3310   41.0370 C   0  0  0  0  0  0  0  0  0  0  0  0
   -0.3500   31.6990   33.2040 C   0  0  2  0  0  0  0  0  0  0  0  0
   -0.7520   30.2700   33.0380 C   0  0  0  0  0  0  0  0  0  0  0  0
    0.9240   32.0740   32.4000 C   0  0  0  0  0  0  0  0  0  0  0  0
    0.6230   32.5380   31.0400 C   0  0  0  0  0  0  0  0  0  0  0  0
   -0.4050   33.7360   30.8770 C   0  0  0  0  0  0  0  0  0  0  0  0
   -1.1470   30.1480   42.1290 C   0  0  2  0  0  0  0  0  0  0  0  0
   -0.7250   31.5420   41.6230 C   0  0  0  0  0  0  0  0  0  0  0  0
   -0.3440   34.7500   31.6270 O   0  0  0  0  0  0  0  0  0  0  0  0
   -1.1580   33.5340   29.9560 O   0  0  0  0  0  0  0  0  0  0  0  0
   -2.0040   32.3310   41.1950 C   0  0  1  0  0  0  0  0  0  0  0  0
   -1.6100   33.7360   40.6850 C   0  0  0  0  0  0  0  0  0  0  0  0
   -0.7410   33.6570   39.4110 C   0  0  1  0  0  0  0  0  0  0  0  0
   -1.4820   32.9310   38.2360 C   0  0  2  0  0  0  0  0  0  0  0  0
   -1.8610   31.4890   38.7300 C   0  0  1  0  0  0  0  0  0  0  0  0
   -3.7814   30.3287   41.5265 H   0  0  0  0  0  0  0  0  0  0  0  0
   -3.6894   29.6139   39.8478 H   0  0  0  0  0  0  0  0  0  0  0  0
   -3.4685   31.2332   37.2996 H   0  0  0  0  0  0  0  0  0  0  0  0
   -2.7314   29.6927   37.9157 H   0  0  0  0  0  0  0  0  0  0  0  0
   -0.6716   30.1336   36.5755 H   0  0  0  0  0  0  0  0  0  0  0  0
   -2.1503   30.0759   35.5234 H   0  0  0  0  0  0  0  0  0  0  0  0
    0.2749   32.2297   37.3573 H   0  0  0  0  0  0  0  0  0  0  0  0
   -0.8530   34.8865   36.2671 H   0  0  0  0  0  0  0  0  0  0  0  0
    0.7849   34.5749   36.7964 H   0  0  0  0  0  0  0  0  0  0  0  0
   -0.3025   34.2542   34.0792 H   0  0  0  0  0  0  0  0  0  0  0  0
    1.3480   33.8428   34.5789 H   0  0  0  0  0  0  0  0  0  0  0  0
    0.6969   31.4169   34.9840 H   0  0  0  0  0  0  0  0  0  0  0  0
   -3.1559   33.1531   36.0865 H   0  0  0  0  0  0  0  0  0  0  0  0
   -2.2681   33.6706   34.6132 H   0  0  0  0  0  0  0  0  0  0  0  0
   -3.1849   32.1259   34.6132 H   0  0  0  0  0  0  0  0  0  0  0  0
   -4.6438   32.5700   40.6862 H   0  0  0  0  0  0  0  0  0  0  0  0
   -3.9642   33.2253   39.1580 H   0  0  0  0  0  0  0  0  0  0  0  0
   -4.8102   31.6407   39.1580 H   0  0  0  0  0  0  0  0  0  0  0  0
   -0.2309   35.5727   39.8290 H   0  0  0  0  0  0  0  0  0  0  0  0
    0.0919   29.4069   43.5348 H   0  0  0  0  0  0  0  0  0  0  0  0
   -2.2268   28.3588   41.4435 H   0  0  0  0  0  0  0  0  0  0  0  0
   -1.2668   29.1377   40.1666 H   0  0  0  0  0  0  0  0  0  0  0  0
   -1.2268   32.2371   32.8146 H   0  0  0  0  0  0  0  0  0  0  0  0
   -0.8819   29.8083   34.0279 H   0  0  0  0  0  0  0  0  0  0  0  0
   -1.6997   30.2179   32.4819 H   0  0  0  0  0  0  0  0  0  0  0  0
    0.0295   29.7315   32.4819 H   0  0  0  0  0  0  0  0  0  0  0  0
    1.4541   32.8754   32.9354 H   0  0  0  0  0  0  0  0  0  0  0  0
    1.5387   31.1661   32.3115 H   0  0  0  0  0  0  0  0  0  0  0  0
    1.5723   32.8561   30.5843 H   0  0  0  0  0  0  0  0  0  0  0  0
    0.1286   31.6815   30.5584 H   0  0  0  0  0  0  0  0  0  0  0  0
   -1.8400   30.2740   42.9739 H   0  0  0  0  0  0  0  0  0  0  0  0
   -0.2069   32.0858   42.4267 H   0  0  0  0  0  0  0  0  0  0  0  0
   -0.0454   31.4379   40.7643 H   0  0  0  0  0  0  0  0  0  0  0  0
   -0.9923   35.4895   31.5133 H   0  0  0  0  0  0  0  0  0  0  0  0
   -2.6528   32.4032   42.0804 H   0  0  0  0  0  0  0  0  0  0  0  0
   -2.5251   34.3026   40.4580 H   0  0  0  0  0  0  0  0  0  0  0  0
   -1.0231   34.2344   41.4706 H   0  0  0  0  0  0  0  0  0  0  0  0
    0.1590   33.0639   39.6307 H   0  0  0  0  0  0  0  0  0  0  0  0
   -2.3637   33.5299   37.9642 H   0  0  0  0  0  0  0  0  0  0  0  0
   -0.9584   30.9335   39.0245 H   0  0  0  0  0  0  0  0  0  0  0  0
  1  2  1  0
  3  4  1  0
  4  5  1  0
  5  6  1  0
  6  7  1  0
  7  8  1  0
  5  9  1  0
  8  9  1  0
  5 10  1  6
  2 11  1  6
  1 14  1  0
  9 15  1  0
 15 16  1  0
 15 17  1  0
 17 18  1  0
 18 19  1  0
 13 20  1  0
 14 20  1  0
 20 21  1  0
 19 22  1  0
 19 23  2  0
  2 24  1  0
 21 24  1  0
 24 25  1  0
 12 26  1  0
 25 26  1  0
  6 27  1  0
 26 27  1  0
  2 28  1  0
  3 28  1  0
 27 28  1  0
  1 29  1  0
  1 30  1  0
  3 31  1  0
  3 32  1  0
  4 33  1  0
  4 34  1  0
  6 35  1  1
  7 36  1  0
  7 37  1  0
  8 38  1  0
  8 39  1  0
  9 40  1  1
 10 41  1  0
 10 42  1  0
 10 43  1  0
 11 44  1  0
 11 45  1  0
 11 46  1  0
 12 47  1  0
 13 48  1  0
 14 49  1  0
 14 50  1  0
 15 51  1  6
 16 52  1  0
 16 53  1  0
 16 54  1  0
 17 55  1  0
 17 56  1  0
 18 57  1  0
 18 58  1  0
 20 59  1  1
 21 60  1  0
 21 61  1  0
 22 62  1  0
 24 63  1  1
 25 64  1  0
 25 65  1  0
 26 66  1  1
 27 67  1  6
 28 68  1  1
M  END
$$$$
