PDB_DB01157_96
     RDKit          3D

 50 52  0  0  0  0  0  0  0  0999 V2000
   66.1290  -29.6090   24.8620 N   0  0  0  0  0  0  0  0  0  0  0  0
   65.3840  -28.8180   25.6470 C   0  0  0  0  0  0  0  0  0  0  0  0
   64.4220  -29.3430   26.4270 N   0  0  0  0  0  0  0  0  0  0  0  0
   64.1940  -30.6680   26.4360 C   0  0  0  0  0  0  0  0  0  0  0  0
   65.9400  -30.9410   24.8320 C   0  0  0  0  0  0  0  0  0  0  0  0
   64.9530  -31.5440   25.6300 C   0  0  0  0  0  0  0  0  0  0  0  0
   64.7900  -32.9520   25.5670 C   0  0  0  0  0  0  0  0  0  0  0  0
   65.6140  -33.7140   24.7130 C   0  0  0  0  0  0  0  0  0  0  0  0
   66.5830  -33.0790   23.9370 C   0  0  0  0  0  0  0  0  0  0  0  0
   66.7500  -31.7010   23.9940 C   0  0  0  0  0  0  0  0  0  0  0  0
   65.4990  -35.1120   24.5890 C   0  0  0  0  0  0  0  0  0  0  0  0
   66.3840  -35.7950   25.5390 N   0  0  0  0  0  0  0  0  0  0  0  0
   67.5590  -36.3570   25.2160 C   0  0  0  0  0  0  0  0  0  0  0  0
   68.6810  -36.0790   26.0080 C   0  0  0  0  0  0  0  0  0  0  0  0
   69.9100  -36.6620   25.6890 C   0  0  0  0  0  0  0  0  0  0  0  0
   69.9920  -37.5290   24.5910 C   0  0  0  0  0  0  0  0  0  0  0  0
   68.8740  -37.8150   23.8080 C   0  0  0  0  0  0  0  0  0  0  0  0
   67.6460  -37.2280   24.1250 C   0  0  0  0  0  0  0  0  0  0  0  0
   63.8290  -33.6140   26.3360 C   0  0  0  0  0  0  0  0  0  0  0  0
   71.0570  -36.4430   26.4160 O   0  0  0  0  0  0  0  0  0  0  0  0
   71.1880  -38.1210   24.2730 O   0  0  0  0  0  0  0  0  0  0  0  0
   69.0560  -38.6800   22.7620 O   0  0  0  0  0  0  0  0  0  0  0  0
   71.7350  -35.1760   26.1720 C   0  0  0  0  0  0  0  0  0  0  0  0
   71.9750  -37.3980   23.2740 C   0  0  0  0  0  0  0  0  0  0  0  0
   68.9180  -38.0660   21.4580 C   0  0  0  0  0  0  0  0  0  0  0  0
   65.6050  -27.5090   25.6440 N   0  0  0  0  0  0  0  0  0  0  0  0
   63.2390  -31.1630   27.2180 N   0  0  0  0  0  0  0  0  0  0  0  0
   67.2232  -33.6766   23.2714 H   0  0  0  0  0  0  0  0  0  0  0  0
   67.5199  -31.2124   23.3788 H   0  0  0  0  0  0  0  0  0  0  0  0
   64.4585  -35.4072   24.7895 H   0  0  0  0  0  0  0  0  0  0  0  0
   65.7894  -35.3999   23.5678 H   0  0  0  0  0  0  0  0  0  0  0  0
   66.0825  -35.8468   26.5225 H   0  0  0  0  0  0  0  0  0  0  0  0
   68.5948  -35.4068   26.8744 H   0  0  0  0  0  0  0  0  0  0  0  0
   66.7539  -37.4494   23.5207 H   0  0  0  0  0  0  0  0  0  0  0  0
   64.0468  -33.4640   27.4037 H   0  0  0  0  0  0  0  0  0  0  0  0
   62.8324  -33.2099   26.1048 H   0  0  0  0  0  0  0  0  0  0  0  0
   63.8514  -34.6892   26.1048 H   0  0  0  0  0  0  0  0  0  0  0  0
   71.9875  -34.7042   27.1331 H   0  0  0  0  0  0  0  0  0  0  0  0
   72.6565  -35.3576   25.5994 H   0  0  0  0  0  0  0  0  0  0  0  0
   71.0727  -34.5100   25.5994 H   0  0  0  0  0  0  0  0  0  0  0  0
   72.6938  -36.7377   23.7812 H   0  0  0  0  0  0  0  0  0  0  0  0
   72.5191  -38.1178   22.6448 H   0  0  0  0  0  0  0  0  0  0  0  0
   71.3039  -36.7949   22.6448 H   0  0  0  0  0  0  0  0  0  0  0  0
   68.6782  -36.9992   21.5785 H   0  0  0  0  0  0  0  0  0  0  0  0
   69.8617  -38.1692   20.9024 H   0  0  0  0  0  0  0  0  0  0  0  0
   68.1092  -38.5631   20.9024 H   0  0  0  0  0  0  0  0  0  0  0  0
   65.0397  -26.8899   26.2424 H   0  0  0  0  0  0  0  0  0  0  0  0
   66.3417  -27.1125   25.0432 H   0  0  0  0  0  0  0  0  0  0  0  0
   63.0579  -32.1769   27.2309 H   0  0  0  0  0  0  0  0  0  0  0  0
   62.6805  -30.5325   27.8108 H   0  0  0  0  0  0  0  0  0  0  0  0
  1  2  2  0
  2  3  1  0
  3  4  2  0
  1  5  1  0
  4  6  1  0
  5  6  2  0
  6  7  1  0
  7  8  2  0
  8  9  1  0
  5 10  1  0
  9 10  2  0
  8 11  1  0
 11 12  1  0
 12 13  1  0
 13 14  2  0
 14 15  1  0
 15 16  2  0
 16 17  1  0
 13 18  1  0
 17 18  2  0
  7 19  1  0
 15 20  1  0
 16 21  1  0
 17 22  1  0
 20 23  1  0
 21 24  1  0
 22 25  1  0
  2 26  1  0
  4 27  1  0
  9 28  1  0
 10 29  1  0
 11 30  1  0
 11 31  1  0
 12 32  1  0
 14 33  1  0
 18 34  1  0
 19 35  1  0
 19 36  1  0
 19 37  1  0
 23 38  1  0
 23 39  1  0
 23 40  1  0
 24 41  1  0
 24 42  1  0
 24 43  1  0
 25 44  1  0
 25 45  1  0
 25 46  1  0
 26 47  1  0
 26 48  1  0
 27 49  1  0
 27 50  1  0
M  END
$$$$
