PDB_DB04729_90
     RDKit          3D

 70 72  0  0  0  0  0  0  0  0999 V2000
  102.6470    5.7640  -61.3560 C   0  0  2  0  0  0  0  0  0  0  0  0
  103.5350    4.6370  -61.0800 O   0  0  0  0  0  0  0  0  0  0  0  0
  101.5770    5.3600  -62.4060 C   0  0  2  0  0  0  0  0  0  0  0  0
  100.8600    4.2390  -61.8990 N   0  0  0  0  0  0  0  0  0  0  0  0
  102.2610    5.0500  -63.8090 C   0  0  0  0  0  0  0  0  0  0  0  0
  103.0040    6.3520  -64.2810 C   0  0  0  0  0  0  0  0  0  0  0  0
  104.0890    6.7520  -63.1760 C   0  0  2  0  0  0  0  0  0  0  0  0
  103.4730    6.9190  -61.8430 O   0  0  0  0  0  0  0  0  0  0  0  0
  104.8550    8.0090  -63.5230 C   0  0  0  0  0  0  0  0  0  0  0  0
  105.8820    8.3030  -62.5570 N   0  0  0  0  0  0  0  0  0  0  0  0
  105.6630    3.1010  -57.6630 C   0  0  2  0  0  0  0  0  0  0  0  0
  106.0200    2.8730  -56.2990 N   0  0  0  0  0  0  0  0  0  0  0  0
  105.7650    4.6370  -57.9750 C   0  0  0  0  0  0  0  0  0  0  0  0
  105.3690    4.9130  -59.4830 C   0  0  2  0  0  0  0  0  0  0  0  0
  105.4650    6.3480  -59.7820 N   0  0  0  0  0  0  0  0  0  0  0  0
  103.8940    4.3860  -59.7570 C   0  0  2  0  0  0  0  0  0  0  0  0
  103.8120    2.8320  -59.4210 C   0  0  2  0  0  0  0  0  0  0  0  0
  102.4900    2.3530  -59.6530 O   0  0  0  0  0  0  0  0  0  0  0  0
  104.2250    2.5870  -57.9110 C   0  0  1  0  0  0  0  0  0  0  0  0
  104.1550    1.1930  -57.6250 O   0  0  0  0  0  0  0  0  0  0  0  0
  103.6080    0.6790  -56.3680 C   0  0  2  0  0  0  0  0  0  0  0  0
  104.0060   -0.8260  -56.2710 C   0  0  2  0  0  0  0  0  0  0  0  0
  105.4110   -0.9510  -56.3190 O   0  0  0  0  0  0  0  0  0  0  0  0
  103.2850   -1.6220  -57.4490 C   0  0  1  0  0  0  0  0  0  0  0  0
  103.6310   -3.0840  -57.4140 N   0  0  0  0  0  0  0  0  0  0  0  0
  101.6640   -1.4380  -57.3540 C   0  0  1  0  0  0  0  0  0  0  0  0
  101.1510   -1.9920  -56.1570 O   0  0  0  0  0  0  0  0  0  0  0  0
  101.3060    0.0830  -57.3800 C   0  0  0  0  0  0  0  0  0  0  0  0
  102.1070    0.8230  -56.3280 O   0  0  0  0  0  0  0  0  0  0  0  0
  100.8310   -2.1410  -58.4340 C   0  0  0  0  0  0  0  0  0  0  0  0
  104.4480   -3.6170  -58.5170 C   0  0  0  0  0  0  0  0  0  0  0  0
  102.1172    6.0602  -60.4386 H   0  0  0  0  0  0  0  0  0  0  0  0
  100.8721    6.1867  -62.5786 H   0  0  0  0  0  0  0  0  0  0  0  0
  100.8734    4.2600  -60.8693 H   0  0  0  0  0  0  0  0  0  0  0  0
   99.8855    4.2762  -62.2305 H   0  0  0  0  0  0  0  0  0  0  0  0
  102.9822    4.2267  -63.6996 H   0  0  0  0  0  0  0  0  0  0  0  0
  101.5027    4.7517  -64.5479 H   0  0  0  0  0  0  0  0  0  0  0  0
  103.5059    6.1642  -65.2417 H   0  0  0  0  0  0  0  0  0  0  0  0
  102.2807    7.1707  -64.4098 H   0  0  0  0  0  0  0  0  0  0  0  0
  104.8004    5.9133  -63.1538 H   0  0  0  0  0  0  0  0  0  0  0  0
  105.3235    7.8777  -64.5096 H   0  0  0  0  0  0  0  0  0  0  0  0
  104.1439    8.8482  -63.5267 H   0  0  0  0  0  0  0  0  0  0  0  0
  105.5006    8.1938  -61.6064 H   0  0  0  0  0  0  0  0  0  0  0  0
  106.6714    7.6542  -62.6869 H   0  0  0  0  0  0  0  0  0  0  0  0
  106.3497    2.5579  -58.3290 H   0  0  0  0  0  0  0  0  0  0  0  0
  105.3242    3.3174  -55.6831 H   0  0  0  0  0  0  0  0  0  0  0  0
  106.0440    1.8598  -56.1151 H   0  0  0  0  0  0  0  0  0  0  0  0
  105.0820    5.1890  -57.3125 H   0  0  0  0  0  0  0  0  0  0  0  0
  106.7997    4.9706  -57.8075 H   0  0  0  0  0  0  0  0  0  0  0  0
  106.0676    4.3753  -60.1409 H   0  0  0  0  0  0  0  0  0  0  0  0
  105.5006    6.8806  -58.9011 H   0  0  0  0  0  0  0  0  0  0  0  0
  106.3200    6.5287  -60.3273 H   0  0  0  0  0  0  0  0  0  0  0  0
  103.1842    4.9192  -59.1075 H   0  0  0  0  0  0  0  0  0  0  0  0
  104.5067    2.2842  -60.0747 H   0  0  0  0  0  0  0  0  0  0  0  0
  102.0410    2.1903  -58.7858 H   0  0  0  0  0  0  0  0  0  0  0  0
  103.5350    3.1343  -57.2519 H   0  0  0  0  0  0  0  0  0  0  0  0
  104.0118    1.2505  -55.5193 H   0  0  0  0  0  0  0  0  0  0  0  0
  103.6761   -1.2577  -55.3145 H   0  0  0  0  0  0  0  0  0  0  0  0
  105.7711   -0.9830  -55.3974 H   0  0  0  0  0  0  0  0  0  0  0  0
  103.6439   -1.2033  -58.4008 H   0  0  0  0  0  0  0  0  0  0  0  0
  104.1440   -3.2585  -56.5381 H   0  0  0  0  0  0  0  0  0  0  0  0
  101.5678   -1.5419  -55.3799 H   0  0  0  0  0  0  0  0  0  0  0  0
  101.5401    0.4952  -58.3726 H   0  0  0  0  0  0  0  0  0  0  0  0
  100.2334    0.2047  -57.1684 H   0  0  0  0  0  0  0  0  0  0  0  0
  100.0741   -2.7798  -57.9554 H   0  0  0  0  0  0  0  0  0  0  0  0
  100.3316   -1.3872  -59.0604 H   0  0  0  0  0  0  0  0  0  0  0  0
  101.4901   -2.7600  -59.0604 H   0  0  0  0  0  0  0  0  0  0  0  0
  105.3021   -4.1742  -58.1046 H   0  0  0  0  0  0  0  0  0  0  0  0
  103.8354   -4.2897  -59.1352 H   0  0  0  0  0  0  0  0  0  0  0  0
  104.8169   -2.7853  -59.1352 H   0  0  0  0  0  0  0  0  0  0  0  0
  2  1  1  0
  3  1  1  0
  4  3  1  0
  5  3  1  0
  6  5  1  0
  7  6  1  0
  8  1  1  0
  8  7  1  0
  9  7  1  0
 10  9  1  0
 12 11  1  0
 13 11  1  0
 14 13  1  0
 15 14  1  0
 16  2  1  0
 16 14  1  0
 17 16  1  0
 18 17  1  0
 19 17  1  0
 19 11  1  0
 20 19  1  0
 21 20  1  0
 22 21  1  0
 23 22  1  0
 24 22  1  0
 25 24  1  0
 26 24  1  0
 26 27  1  1
 28 26  1  0
 29 28  1  0
 29 21  1  0
 30 26  1  0
 31 25  1  0
  1 32  1  1
  3 33  1  6
  4 34  1  0
  4 35  1  0
  5 36  1  0
  5 37  1  0
  6 38  1  0
  6 39  1  0
  7 40  1  1
  9 41  1  0
  9 42  1  0
 10 43  1  0
 10 44  1  0
 11 45  1  6
 12 46  1  0
 12 47  1  0
 13 48  1  0
 13 49  1  0
 14 50  1  6
 15 51  1  0
 15 52  1  0
 16 53  1  1
 17 54  1  6
 18 55  1  0
 19 56  1  1
 21 57  1  1
 22 58  1  1
 23 59  1  0
 24 60  1  6
 25 61  1  0
 27 62  1  0
 28 63  1  0
 28 64  1  0
 30 65  1  0
 30 66  1  0
 30 67  1  0
 31 68  1  0
 31 69  1  0
 31 70  1  0
M  END
$$$$
