PDB_DB00814_96
     RDKit          3D

 36 38  0  0  0  0  0  0  0  0999 V2000
  248.0450  103.9100    0.0050 C   0  0  0  0  0  0  0  0  0  0  0  0
  248.9810  104.7190    0.8740 C   0  0  0  0  0  0  0  0  0  0  0  0
  249.3520  104.4370    2.4520 S   0  0  0  0  0  0  0  0  0  0  0  0
  249.6240  105.7850    0.4240 C   0  0  0  0  0  0  0  0  0  0  0  0
  250.3860  106.3440    1.3640 N   0  0  0  0  0  0  0  0  0  0  0  0
  250.3550  105.7340    2.5500 C   0  0  0  0  0  0  0  0  0  0  0  0
  251.0140  106.1370    3.6380 N   0  0  0  0  0  0  0  0  0  0  0  0
  251.8170  107.2150    3.5380 C   0  0  0  0  0  0  0  0  0  0  0  0
  251.8060  107.9950    2.5840 O   0  0  0  0  0  0  0  0  0  0  0  0
  252.4810  107.5940    4.6980 C   0  0  0  0  0  0  0  0  0  0  0  0
  252.6020  106.6940    5.8000 C   0  0  0  0  0  0  0  0  0  0  0  0
  251.7950  105.6000    5.8030 O   0  0  0  0  0  0  0  0  0  0  0  0
  253.2720  106.9850    6.9990 C   0  0  0  0  0  0  0  0  0  0  0  0
  253.7270  106.0060    7.8730 C   0  0  0  0  0  0  0  0  0  0  0  0
  254.5170  106.3900    8.9560 C   0  0  0  0  0  0  0  0  0  0  0  0
  254.9250  107.7130    9.1170 C   0  0  0  0  0  0  0  0  0  0  0  0
  254.5390  108.6660    8.1840 C   0  0  0  0  0  0  0  0  0  0  0  0
  253.8330  108.2250    7.0800 C   0  0  0  0  0  0  0  0  0  0  0  0
  253.1980  109.1240    6.0570 S   0  0  0  0  0  0  0  0  0  0  0  0
  253.9460  110.4550    6.1470 O   0  0  0  0  0  0  0  0  0  0  0  0
  251.7270  109.3850    6.4210 O   0  0  0  0  0  0  0  0  0  0  0  0
  253.3200  108.6780    4.6540 N   0  0  0  0  0  0  0  0  0  0  0  0
  254.4540  108.4140    3.7370 C   0  0  0  0  0  0  0  0  0  0  0  0
  247.3670  103.3240    0.6429 H   0  0  0  0  0  0  0  0  0  0  0  0
  247.4562  104.5882   -0.6301 H   0  0  0  0  0  0  0  0  0  0  0  0
  248.6308  103.2292   -0.6301 H   0  0  0  0  0  0  0  0  0  0  0  0
  249.5394  106.1649   -0.6048 H   0  0  0  0  0  0  0  0  0  0  0  0
  250.9116  105.6366    4.5324 H   0  0  0  0  0  0  0  0  0  0  0  0
  251.8456  104.9496    6.5477 H   0  0  0  0  0  0  0  0  0  0  0  0
  253.4692  104.9485    7.7139 H   0  0  0  0  0  0  0  0  0  0  0  0
  254.8234  105.6359    9.6959 H   0  0  0  0  0  0  0  0  0  0  0  0
  255.5482  107.9999    9.9768 H   0  0  0  0  0  0  0  0  0  0  0  0
  254.7851  109.7297    8.3178 H   0  0  0  0  0  0  0  0  0  0  0  0
  255.3595  108.2032    4.3249 H   0  0  0  0  0  0  0  0  0  0  0  0
  254.2184  107.5467    3.1028 H   0  0  0  0  0  0  0  0  0  0  0  0
  254.6257  109.2962    3.1028 H   0  0  0  0  0  0  0  0  0  0  0  0
  1  2  1  0
  2  3  1  0
  2  4  2  0
  4  5  1  0
  3  6  1  0
  5  6  2  0
  6  7  1  0
  7  8  1  0
  8  9  2  0
  8 10  1  0
 10 11  2  0
 11 12  1  0
 11 13  1  0
 13 14  2  0
 14 15  1  0
 15 16  2  0
 16 17  1  0
 13 18  1  0
 17 18  2  0
 18 19  1  0
 19 20  2  0
 19 21  2  0
 10 22  1  0
 19 22  1  0
 22 23  1  0
  1 24  1  0
  1 25  1  0
  1 26  1  0
  4 27  1  0
  7 28  1  0
 12 29  1  0
 14 30  1  0
 15 31  1  0
 16 32  1  0
 17 33  1  0
 23 34  1  0
 23 35  1  0
 23 36  1  0
M  END
$$$$
