PDB_DB00188_87
     RDKit          3D

 53 54  0  0  0  0  0  0  0  0999 V2000
   62.6660 -133.1550   36.1380 N   0  0  0  0  0  0  0  0  0  0  0  0
   62.0620 -134.3430   36.3230 C   0  0  0  0  0  0  0  0  0  0  0  0
   62.0430 -135.2900   35.2980 C   0  0  0  0  0  0  0  0  0  0  0  0
   62.6570 -135.0080   34.0710 N   0  0  0  0  0  0  0  0  0  0  0  0
   63.2850 -133.7680   33.8840 C   0  0  0  0  0  0  0  0  0  0  0  0
   63.2880 -132.8390   34.9210 C   0  0  0  0  0  0  0  0  0  0  0  0
   61.4570 -134.6110   37.5480 C   0  0  0  0  0  0  0  0  0  0  0  0
   60.6450 -133.8200   38.0280 O   0  0  0  0  0  0  0  0  0  0  0  0
   61.8300 -135.7630   38.1350 N   0  0  0  0  0  0  0  0  0  0  0  0
   61.3080 -136.1720   39.4460 C   0  0  1  0  0  0  0  0  0  0  0  0
   60.6370 -137.5240   39.3780 C   0  0  0  0  0  0  0  0  0  0  0  0
   59.4520 -137.3630   38.6320 C   0  0  0  0  0  0  0  0  0  0  0  0
   59.3160 -137.9520   37.3700 C   0  0  0  0  0  0  0  0  0  0  0  0
   58.1400 -137.7930   36.6380 C   0  0  0  0  0  0  0  0  0  0  0  0
   57.0870 -137.0480   37.1600 C   0  0  0  0  0  0  0  0  0  0  0  0
   57.2130 -136.4620   38.4170 C   0  0  0  0  0  0  0  0  0  0  0  0
   58.3870 -136.6230   39.1490 C   0  0  0  0  0  0  0  0  0  0  0  0
   62.5070 -136.2690   40.3760 C   0  0  0  0  0  0  0  0  0  0  0  0
   63.5930 -136.6520   39.9430 O   0  0  0  0  0  0  0  0  0  0  0  0
   62.2860 -135.9020   41.6460 N   0  0  0  0  0  0  0  0  0  0  0  0
   63.3680 -135.9430   42.6390 C   0  0  1  0  0  0  0  0  0  0  0  0
   63.5060 -134.6180   43.3560 C   0  0  0  0  0  0  0  0  0  0  0  0
   63.6060 -133.4810   42.3150 C   0  0  0  0  0  0  0  0  0  0  0  0
   63.4900 -132.1350   43.0510 C   0  0  0  0  0  0  0  0  0  0  0  0
   64.9200 -133.5520   41.5110 C   0  0  0  0  0  0  0  0  0  0  0  0
   63.1010 -137.0430   43.6810 B   0  0  0  0  0  0  0  0  0  0  0  0
   62.9080 -138.3050   43.0290 O   0  0  0  0  0  0  0  0  0  0  0  0
   61.9320 -136.7200   44.4510 O   0  0  0  0  0  0  0  0  0  0  0  0
   61.5455 -136.2586   35.4538 H   0  0  0  0  0  0  0  0  0  0  0  0
   63.7711 -133.5314   32.9260 H   0  0  0  0  0  0  0  0  0  0  0  0
   63.7756 -131.8622   34.7867 H   0  0  0  0  0  0  0  0  0  0  0  0
   62.5013 -136.3761   37.6509 H   0  0  0  0  0  0  0  0  0  0  0  0
   60.5598 -135.4447   39.7942 H   0  0  0  0  0  0  0  0  0  0  0  0
   61.2991 -138.2491   38.8822 H   0  0  0  0  0  0  0  0  0  0  0  0
   60.4154 -137.9016   40.3871 H   0  0  0  0  0  0  0  0  0  0  0  0
   60.1431 -138.5449   36.9523 H   0  0  0  0  0  0  0  0  0  0  0  0
   58.0444 -138.2576   35.6455 H   0  0  0  0  0  0  0  0  0  0  0  0
   56.1593 -136.9225   36.5824 H   0  0  0  0  0  0  0  0  0  0  0  0
   56.3837 -135.8708   38.8326 H   0  0  0  0  0  0  0  0  0  0  0  0
   58.4759 -136.1626   40.1441 H   0  0  0  0  0  0  0  0  0  0  0  0
   61.3469 -135.5876   41.9290 H   0  0  0  0  0  0  0  0  0  0  0  0
   64.3010 -136.1581   42.0974 H   0  0  0  0  0  0  0  0  0  0  0  0
   62.6267 -134.4535   43.9962 H   0  0  0  0  0  0  0  0  0  0  0  0
   64.4134 -134.6287   43.9777 H   0  0  0  0  0  0  0  0  0  0  0  0
   62.7866 -133.5879   41.5889 H   0  0  0  0  0  0  0  0  0  0  0  0
   63.5050 -132.3085   44.1371 H   0  0  0  0  0  0  0  0  0  0  0  0
   64.3359 -131.4899   42.7711 H   0  0  0  0  0  0  0  0  0  0  0  0
   62.5462 -131.6442   42.7711 H   0  0  0  0  0  0  0  0  0  0  0  0
   65.7723 -133.5981   42.2048 H   0  0  0  0  0  0  0  0  0  0  0  0
   64.9140 -134.4511   40.8773 H   0  0  0  0  0  0  0  0  0  0  0  0
   65.0109 -132.6575   40.8773 H   0  0  0  0  0  0  0  0  0  0  0  0
   62.7994 -139.0152   43.7102 H   0  0  0  0  0  0  0  0  0  0  0  0
   62.1457 -136.7790   45.4159 H   0  0  0  0  0  0  0  0  0  0  0  0
  1  2  2  0
  2  3  1  0
  3  4  2  0
  4  5  1  0
  1  6  1  0
  5  6  2  0
  2  7  1  0
  7  8  2  0
  7  9  1  0
  9 10  1  0
 10 11  1  0
 11 12  1  0
 12 13  2  0
 13 14  1  0
 14 15  2  0
 15 16  1  0
 12 17  1  0
 16 17  2  0
 10 18  1  0
 18 19  2  0
 18 20  1  0
 20 21  1  0
 21 22  1  0
 22 23  1  0
 23 24  1  0
 23 25  1  0
 21 26  1  0
 26 27  1  0
 26 28  1  0
  3 29  1  0
  5 30  1  0
  6 31  1  0
  9 32  1  0
 10 33  1  1
 11 34  1  0
 11 35  1  0
 13 36  1  0
 14 37  1  0
 15 38  1  0
 16 39  1  0
 17 40  1  0
 20 41  1  0
 21 42  1  6
 22 43  1  0
 22 44  1  0
 23 45  1  0
 24 46  1  0
 24 47  1  0
 24 48  1  0
 25 49  1  0
 25 50  1  0
 25 51  1  0
 27 52  1  0
 28 53  1  0
M  END
$$$$
