PDB_DB00127_99
     RDKit          3D

 40 39  0  0  0  0  0  0  0  0999 V2000
  -61.3170   31.2250   35.8470 N   0  0  0  0  0  0  0  0  0  0  0  0
  -61.2390   31.0330   34.4180 C   0  0  0  0  0  0  0  0  0  0  0  0
  -59.8180   30.6840   34.0460 C   0  0  0  0  0  0  0  0  0  0  0  0
  -59.7750   30.1700   32.6330 C   0  0  0  0  0  0  0  0  0  0  0  0
  -59.2410   31.2020   31.7980 N   0  0  0  0  0  0  0  0  0  0  0  0
  -58.7620   30.9230   30.4740 C   0  0  0  0  0  0  0  0  0  0  0  0
  -59.1780   32.0530   29.5580 C   0  0  0  0  0  0  0  0  0  0  0  0
  -58.2500   33.2370   29.7150 C   0  0  0  0  0  0  0  0  0  0  0  0
  -58.3320   34.1370   28.5030 C   0  0  0  0  0  0  0  0  0  0  0  0
  -59.3040   35.1940   28.6600 N   0  0  0  0  0  0  0  0  0  0  0  0
  -58.9080   36.4370   29.2850 C   0  0  0  0  0  0  0  0  0  0  0  0
  -58.5940   37.5370   28.2820 C   0  0  0  0  0  0  0  0  0  0  0  0
  -58.0700   38.7980   28.9530 C   0  0  0  0  0  0  0  0  0  0  0  0
  -59.1570   39.6290   29.4280 N   0  0  0  0  0  0  0  0  0  0  0  0
  -60.9738   30.3803   36.3261 H   0  0  0  0  0  0  0  0  0  0  0  0
  -60.7373   32.0324   36.1171 H   0  0  0  0  0  0  0  0  0  0  0  0
  -61.9103   30.2146   34.1186 H   0  0  0  0  0  0  0  0  0  0  0  0
  -61.5424   31.9558   33.9018 H   0  0  0  0  0  0  0  0  0  0  0  0
  -59.1877   31.5818   34.1277 H   0  0  0  0  0  0  0  0  0  0  0  0
  -59.4437   29.9062   34.7279 H   0  0  0  0  0  0  0  0  0  0  0  0
  -59.1325   29.2787   32.5804 H   0  0  0  0  0  0  0  0  0  0  0  0
  -60.7859   29.8950   32.2978 H   0  0  0  0  0  0  0  0  0  0  0  0
  -59.9851   31.9067   31.6953 H   0  0  0  0  0  0  0  0  0  0  0  0
  -57.6651   30.8420   30.4869 H   0  0  0  0  0  0  0  0  0  0  0  0
  -59.1869   29.9742   30.1145 H   0  0  0  0  0  0  0  0  0  0  0  0
  -59.1447   31.7037   28.5155 H   0  0  0  0  0  0  0  0  0  0  0  0
  -60.1987   32.3658   29.8230 H   0  0  0  0  0  0  0  0  0  0  0  0
  -58.5390   33.8075   30.6100 H   0  0  0  0  0  0  0  0  0  0  0  0
  -57.2181   32.8698   29.8168 H   0  0  0  0  0  0  0  0  0  0  0  0
  -57.3439   34.5896   28.3329 H   0  0  0  0  0  0  0  0  0  0  0  0
  -58.6476   33.5185   27.6498 H   0  0  0  0  0  0  0  0  0  0  0  0
  -59.6471   35.4283   27.7175 H   0  0  0  0  0  0  0  0  0  0  0  0
  -59.7276   36.7789   29.9341 H   0  0  0  0  0  0  0  0  0  0  0  0
  -57.9871   36.2391   29.8531 H   0  0  0  0  0  0  0  0  0  0  0  0
  -57.8327   37.1679   27.5790 H   0  0  0  0  0  0  0  0  0  0  0  0
  -59.5286   37.7957   27.7627 H   0  0  0  0  0  0  0  0  0  0  0  0
  -57.4365   38.5137   29.8061 H   0  0  0  0  0  0  0  0  0  0  0  0
  -57.4909   39.3709   28.2138 H   0  0  0  0  0  0  0  0  0  0  0  0
  -59.1617   39.6326   30.4580 H   0  0  0  0  0  0  0  0  0  0  0  0
  -59.0304   40.5908   29.0819 H   0  0  0  0  0  0  0  0  0  0  0  0
  1  2  1  0
  2  3  1  0
  3  4  1  0
  4  5  1  0
  5  6  1  0
  6  7  1  0
  7  8  1  0
  8  9  1  0
  9 10  1  0
 10 11  1  0
 11 12  1  0
 12 13  1  0
 13 14  1  0
  1 15  1  0
  1 16  1  0
  2 17  1  0
  2 18  1  0
  3 19  1  0
  3 20  1  0
  4 21  1  0
  4 22  1  0
  5 23  1  0
  6 24  1  0
  6 25  1  0
  7 26  1  0
  7 27  1  0
  8 28  1  0
  8 29  1  0
  9 30  1  0
  9 31  1  0
 10 32  1  0
 11 33  1  0
 11 34  1  0
 12 35  1  0
 12 36  1  0
 13 37  1  0
 13 38  1  0
 14 39  1  0
 14 40  1  0
M  END
$$$$
