PDB_DB00360_91
     RDKit          3D

 32 33  0  0  0  0  0  0  0  0999 V2000
  101.7920  -17.5440 -213.1890 N   0  0  0  0  0  0  0  0  0  0  0  0
  102.2450  -16.3560 -213.6580 C   0  0  0  0  0  0  0  0  0  0  0  0
  101.4250  -15.2760 -213.7620 N   0  0  0  0  0  0  0  0  0  0  0  0
  103.5240  -16.2380 -214.0500 N   0  0  0  0  0  0  0  0  0  0  0  0
  104.3730  -17.2690 -213.9670 C   0  0  0  0  0  0  0  0  0  0  0  0
  105.5460  -17.0910 -214.3480 O   0  0  0  0  0  0  0  0  0  0  0  0
  103.9310  -18.4900 -213.4840 C   0  0  0  0  0  0  0  0  0  0  0  0
  102.6140  -18.6100 -213.0880 C   0  0  0  0  0  0  0  0  0  0  0  0
  104.7540  -19.5620 -213.3900 N   0  0  0  0  0  0  0  0  0  0  0  0
  102.1260  -19.7840 -212.6050 N   0  0  0  0  0  0  0  0  0  0  0  0
  104.1280  -20.8850 -213.3430 C   0  0  2  0  0  0  0  0  0  0  0  0
  102.9960  -20.9190 -212.3240 C   0  0  0  0  0  0  0  0  0  0  0  0
  105.1360  -22.0370 -213.1860 C   0  0  1  0  0  0  0  0  0  0  0  0
  106.2120  -21.6940 -212.2940 O   0  0  0  0  0  0  0  0  0  0  0  0
  104.4660  -23.3030 -212.6800 C   0  0  2  0  0  0  0  0  0  0  0  0
  105.4330  -24.4870 -212.7440 C   0  0  0  0  0  0  0  0  0  0  0  0
  103.2970  -23.5930 -213.4530 O   0  0  0  0  0  0  0  0  0  0  0  0
  101.7922  -14.3833 -214.1214 H   0  0  0  0  0  0  0  0  0  0  0  0
  100.4368  -15.3508 -213.4813 H   0  0  0  0  0  0  0  0  0  0  0  0
  103.8577  -15.3371 -214.4215 H   0  0  0  0  0  0  0  0  0  0  0  0
  105.7773  -19.4511 -213.3531 H   0  0  0  0  0  0  0  0  0  0  0  0
  101.1144  -19.8734 -212.4332 H   0  0  0  0  0  0  0  0  0  0  0  0
  103.6747  -21.0619 -214.3295 H   0  0  0  0  0  0  0  0  0  0  0  0
  103.4037  -20.8378 -211.3056 H   0  0  0  0  0  0  0  0  0  0  0  0
  102.4377  -21.8643 -212.3933 H   0  0  0  0  0  0  0  0  0  0  0  0
  105.5472  -22.2183 -214.1900 H   0  0  0  0  0  0  0  0  0  0  0  0
  105.9075  -21.7911 -211.3570 H   0  0  0  0  0  0  0  0  0  0  0  0
  104.1727  -23.1392 -211.6326 H   0  0  0  0  0  0  0  0  0  0  0  0
  105.6922  -24.8043 -211.7232 H   0  0  0  0  0  0  0  0  0  0  0  0
  104.9554  -25.3221 -213.2774 H   0  0  0  0  0  0  0  0  0  0  0  0
  106.3466  -24.1858 -213.2774 H   0  0  0  0  0  0  0  0  0  0  0  0
  102.5381  -23.7813 -212.8457 H   0  0  0  0  0  0  0  0  0  0  0  0
  1  2  2  0
  2  3  1  0
  2  4  1  0
  4  5  1  0
  5  6  2  0
  5  7  1  0
  1  8  1  0
  7  8  2  0
  7  9  1  0
  8 10  1  0
  9 11  1  0
 10 12  1  0
 11 12  1  0
 11 13  1  0
 13 14  1  0
 13 15  1  0
 15 16  1  0
 15 17  1  0
  3 18  1  0
  3 19  1  0
  4 20  1  0
  9 21  1  0
 10 22  1  0
 11 23  1  6
 12 24  1  0
 12 25  1  0
 13 26  1  6
 14 27  1  0
 15 28  1  1
 16 29  1  0
 16 30  1  0
 16 31  1  0
 17 32  1  0
M  END
$$$$
