PDB_DB05990_97
     RDKit          3D

 74 77  0  0  0  0  0  0  0  0999 V2000
   18.0430   15.4160   56.7720 C   0  0  0  0  0  0  0  0  0  0  0  0
   17.8900   15.6840   55.2310 C   0  0  0  0  0  0  0  0  0  0  0  0
   18.8490   16.8740   54.7820 C   0  0  1  0  0  0  0  0  0  0  0  0
   18.7140   17.1180   53.4180 O   0  0  0  0  0  0  0  0  0  0  0  0
   18.5510   18.2260   55.6140 C   0  0  0  0  0  0  0  0  0  0  0  0
   18.7010   17.9630   57.2200 C   0  0  1  0  0  0  0  0  0  0  0  0
   18.3940   19.2380   58.1100 C   0  0  2  0  0  0  0  0  0  0  0  0
   16.8660   19.7030   58.0070 C   0  0  1  0  0  0  0  0  0  0  0  0
   16.5170   20.2490   56.6810 O   0  0  0  0  0  0  0  0  0  0  0  0
   15.8720   18.5390   58.3950 C   0  0  2  0  0  0  0  0  0  0  0  0
   16.1140   17.2220   57.4700 C   0  0  1  0  0  0  0  0  0  0  0  0
   17.7040   16.7030   57.6590 C   0  0  1  0  0  0  0  0  0  0  0  0
   15.0980   16.1390   57.8630 C   0  0  0  0  0  0  0  0  0  0  0  0
   13.5900   16.5790   57.7260 C   0  0  0  0  0  0  0  0  0  0  0  0
   13.2840   17.8540   58.6080 C   0  0  1  0  0  0  0  0  0  0  0  0
   14.3430   18.9540   58.2330 C   0  0  1  0  0  0  0  0  0  0  0  0
   13.8210   20.2080   59.0570 C   0  0  0  0  0  0  0  0  0  0  0  0
   12.3830   20.2090   58.6170 C   0  0  0  0  0  0  0  0  0  0  0  0
   11.9490   18.7100   58.2760 C   0  0  2  0  0  0  0  0  0  0  0  0
   13.3990   17.4170   60.1910 C   0  0  0  0  0  0  0  0  0  0  0  0
   17.9880   16.1790   59.0530 C   0  0  0  0  0  0  0  0  0  0  0  0
   10.6020   18.2750   59.0400 C   0  0  2  0  0  0  0  0  0  0  0  0
   10.2400   16.7600   58.6320 C   0  0  0  0  0  0  0  0  0  0  0  0
    9.4400   19.1820   58.6560 C   0  0  0  0  0  0  0  0  0  0  0  0
    8.0860   18.8360   59.3660 C   0  0  0  0  0  0  0  0  0  0  0  0
    6.9100   19.6920   59.0250 C   0  0  0  0  0  0  0  0  0  0  0  0
   20.7260   20.4440   57.7520 C   0  0  0  0  0  0  0  0  0  0  0  0
   19.1950   20.4080   57.6010 C   0  0  0  0  0  0  0  0  0  0  0  0
    6.4500   20.4230   59.9220 O   0  0  0  0  0  0  0  0  0  0  0  0
    6.4330   19.6450   57.8600 O   0  0  0  0  0  0  0  0  0  0  0  0
   17.3600   14.6022   57.0572 H   0  0  0  0  0  0  0  0  0  0  0  0
   19.0936   15.1501   56.9603 H   0  0  0  0  0  0  0  0  0  0  0  0
   18.1569   14.7729   54.6754 H   0  0  0  0  0  0  0  0  0  0  0  0
   16.8476   15.9626   55.0168 H   0  0  0  0  0  0  0  0  0  0  0  0
   19.8825   16.5637   54.9958 H   0  0  0  0  0  0  0  0  0  0  0  0
   18.2393   17.9760   53.2816 H   0  0  0  0  0  0  0  0  0  0  0  0
   19.2663   19.0034   55.3074 H   0  0  0  0  0  0  0  0  0  0  0  0
   17.5209   18.5498   55.4041 H   0  0  0  0  0  0  0  0  0  0  0  0
   19.7558   17.7137   57.4080 H   0  0  0  0  0  0  0  0  0  0  0  0
   18.6401   18.9560   59.1444 H   0  0  0  0  0  0  0  0  0  0  0  0
   16.7559   20.5187   58.7367 H   0  0  0  0  0  0  0  0  0  0  0  0
   15.9873   21.0777   56.7943 H   0  0  0  0  0  0  0  0  0  0  0  0
   16.0821   18.3213   59.4526 H   0  0  0  0  0  0  0  0  0  0  0  0
   15.9611   17.4540   56.4057 H   0  0  0  0  0  0  0  0  0  0  0  0
   15.2610   15.2639   57.2168 H   0  0  0  0  0  0  0  0  0  0  0  0
   15.2661   15.9231   58.9284 H   0  0  0  0  0  0  0  0  0  0  0  0
   13.3788   16.8128   56.6721 H   0  0  0  0  0  0  0  0  0  0  0  0
   12.9532   15.7529   58.0754 H   0  0  0  0  0  0  0  0  0  0  0  0
   14.3957   19.1684   57.1554 H   0  0  0  0  0  0  0  0  0  0  0  0
   13.9185   20.0561   60.1421 H   0  0  0  0  0  0  0  0  0  0  0  0
   14.3668   21.1464   58.8796 H   0  0  0  0  0  0  0  0  0  0  0  0
   11.7492   20.6028   59.4252 H   0  0  0  0  0  0  0  0  0  0  0  0
   12.2645   20.8445   57.7270 H   0  0  0  0  0  0  0  0  0  0  0  0
   11.6469   18.5466   57.2310 H   0  0  0  0  0  0  0  0  0  0  0  0
   13.1708   18.2841   60.8283 H   0  0  0  0  0  0  0  0  0  0  0  0
   12.6829   16.6089   60.4012 H   0  0  0  0  0  0  0  0  0  0  0  0
   14.4201   17.0660   60.4012 H   0  0  0  0  0  0  0  0  0  0  0  0
   17.6023   16.8906   59.7979 H   0  0  0  0  0  0  0  0  0  0  0  0
   17.4943   15.2051   59.1863 H   0  0  0  0  0  0  0  0  0  0  0  0
   19.0735   16.0610   59.1863 H   0  0  0  0  0  0  0  0  0  0  0  0
   10.7681   18.3580   60.1242 H   0  0  0  0  0  0  0  0  0  0  0  0
   10.0965   16.1594   59.5423 H   0  0  0  0  0  0  0  0  0  0  0  0
    9.3145   16.7515   58.0375 H   0  0  0  0  0  0  0  0  0  0  0  0
   11.0617   16.3341   58.0375 H   0  0  0  0  0  0  0  0  0  0  0  0
    9.7103   20.2161   58.9160 H   0  0  0  0  0  0  0  0  0  0  0  0
    9.2742   19.0401   57.5779 H   0  0  0  0  0  0  0  0  0  0  0  0
    7.8293   17.7985   59.1060 H   0  0  0  0  0  0  0  0  0  0  0  0
    8.2689   19.0104   60.4366 H   0  0  0  0  0  0  0  0  0  0  0  0
   20.9891   20.4502   58.8201 H   0  0  0  0  0  0  0  0  0  0  0  0
   21.1628   19.5559   57.2719 H   0  0  0  0  0  0  0  0  0  0  0  0
   21.1206   21.3517   57.2719 H   0  0  0  0  0  0  0  0  0  0  0  0
   18.9847   20.4866   56.5242 H   0  0  0  0  0  0  0  0  0  0  0  0
   18.8673   21.2294   58.2552 H   0  0  0  0  0  0  0  0  0  0  0  0
    5.6539   20.2071   57.6211 H   0  0  0  0  0  0  0  0  0  0  0  0
  1  2  1  0
  2  3  1  0
  3  4  1  0
  3  5  1  0
  5  6  1  0
  6  7  1  0
  7  8  1  0
  8  9  1  0
  8 10  1  0
 10 11  1  0
  1 12  1  0
  6 12  1  0
 11 12  1  0
 11 13  1  0
 13 14  1  0
 14 15  1  0
 10 16  1  0
 15 16  1  0
 16 17  1  0
 17 18  1  0
 15 19  1  0
 18 19  1  0
 15 20  1  1
 12 21  1  1
 19 22  1  0
 22 23  1  0
 22 24  1  0
 24 25  1  0
 25 26  1  0
  7 28  1  0
 27 28  1  0
 26 29  2  0
 26 30  1  0
  1 31  1  0
  1 32  1  0
  2 33  1  0
  2 34  1  0
  3 35  1  6
  4 36  1  0
  5 37  1  0
  5 38  1  0
  6 39  1  6
  7 40  1  1
  8 41  1  1
  9 42  1  0
 10 43  1  1
 11 44  1  6
 13 45  1  0
 13 46  1  0
 14 47  1  0
 14 48  1  0
 16 49  1  6
 17 50  1  0
 17 51  1  0
 18 52  1  0
 18 53  1  0
 19 54  1  6
 20 55  1  0
 20 56  1  0
 20 57  1  0
 21 58  1  0
 21 59  1  0
 21 60  1  0
 22 61  1  1
 23 62  1  0
 23 63  1  0
 23 64  1  0
 24 65  1  0
 24 66  1  0
 25 67  1  0
 25 68  1  0
 27 69  1  0
 27 70  1  0
 27 71  1  0
 28 72  1  0
 28 73  1  0
 30 74  1  0
M  END
$$$$
