PDB_DB01016_98
     RDKit          3D

 61 63  0  0  0  0  0  0  0  0999 V2000
  114.8980  190.5450  124.0100 O   0  0  0  0  0  0  0  0  0  0  0  0
  116.4390  191.1590  126.1040 O   0  0  0  0  0  0  0  0  0  0  0  0
  116.5980  188.9640  127.6900 O   0  0  0  0  0  0  0  0  0  0  0  0
  111.6770  192.8890  129.9600 O   0  0  0  0  0  0  0  0  0  0  0  0
  108.1920  193.0320  135.2200 Cl  0  0  0  0  0  0  0  0  0  0  0  0
  115.7310  189.7250  126.5100 S   0  0  0  0  0  0  0  0  0  0  0  0
  113.0710  193.7470  131.9180 O   0  0  0  0  0  0  0  0  0  0  0  0
  115.0560  188.6930  122.6740 N   0  0  0  0  0  0  0  0  0  0  0  0
  115.6560  188.7360  125.1290 N   0  0  0  0  0  0  0  0  0  0  0  0
  109.5030  192.2200  130.0620 N   0  0  0  0  0  0  0  0  0  0  0  0
  114.5700  189.4400  121.5140 C   0  0  0  0  0  0  0  0  0  0  0  0
  113.2650  190.1290  121.9010 C   0  0  0  0  0  0  0  0  0  0  0  0
  114.3610  188.4770  120.3520 C   0  0  0  0  0  0  0  0  0  0  0  0
  112.6210  190.8400  120.7190 C   0  0  0  0  0  0  0  0  0  0  0  0
  113.7480  189.2070  119.1660 C   0  0  0  0  0  0  0  0  0  0  0  0
  112.4330  189.8900  119.5420 C   0  0  0  0  0  0  0  0  0  0  0  0
  115.1840  189.3990  123.9330 C   0  0  0  0  0  0  0  0  0  0  0  0
  114.0240  189.9840  127.0750 C   0  0  0  0  0  0  0  0  0  0  0  0
  111.4190  190.3130  127.9530 C   0  0  0  0  0  0  0  0  0  0  0  0
  109.9830  190.4530  128.4530 C   0  0  0  0  0  0  0  0  0  0  0  0
  113.3410  191.1580  126.8000 C   0  0  0  0  0  0  0  0  0  0  0  0
  113.4020  188.9780  127.7820 C   0  0  0  0  0  0  0  0  0  0  0  0
  112.0360  191.3240  127.2400 C   0  0  0  0  0  0  0  0  0  0  0  0
  112.1010  189.1440  128.2200 C   0  0  0  0  0  0  0  0  0  0  0  0
  109.5360  191.8940  128.6530 C   0  0  0  0  0  0  0  0  0  0  0  0
  110.7200  192.7500  130.6450 C   0  0  0  0  0  0  0  0  0  0  0  0
  110.7660  193.1100  132.1250 C   0  0  0  0  0  0  0  0  0  0  0  0
  111.9250  193.5850  132.6960 C   0  0  0  0  0  0  0  0  0  0  0  0
  109.6350  192.9450  132.8940 C   0  0  0  0  0  0  0  0  0  0  0  0
  111.9540  193.8980  134.0410 C   0  0  0  0  0  0  0  0  0  0  0  0
  109.6610  193.2560  134.2360 C   0  0  0  0  0  0  0  0  0  0  0  0
  110.8210  193.7340  134.8140 C   0  0  0  0  0  0  0  0  0  0  0  0
  113.7460  192.5460  131.6690 C   0  0  0  0  0  0  0  0  0  0  0  0
  115.2999  187.6952  122.5982 H   0  0  0  0  0  0  0  0  0  0  0  0
  115.9257  187.7420  125.1429 H   0  0  0  0  0  0  0  0  0  0  0  0
  108.6524  192.0817  130.6261 H   0  0  0  0  0  0  0  0  0  0  0  0
  115.2984  190.2024  121.2007 H   0  0  0  0  0  0  0  0  0  0  0  0
  112.5646  189.3725  122.2845 H   0  0  0  0  0  0  0  0  0  0  0  0
  113.4947  190.8845  122.6668 H   0  0  0  0  0  0  0  0  0  0  0  0
  115.3306  188.0512  120.0545 H   0  0  0  0  0  0  0  0  0  0  0  0
  113.6792  187.6745  120.6700 H   0  0  0  0  0  0  0  0  0  0  0  0
  111.6393  191.2300  121.0260 H   0  0  0  0  0  0  0  0  0  0  0  0
  113.2820  191.6605  120.4030 H   0  0  0  0  0  0  0  0  0  0  0  0
  114.4571  189.9693  118.8111 H   0  0  0  0  0  0  0  0  0  0  0  0
  113.5382  188.4678  118.3789 H   0  0  0  0  0  0  0  0  0  0  0  0
  111.6952  189.1214  119.8158 H   0  0  0  0  0  0  0  0  0  0  0  0
  112.0839  190.4728  118.6769 H   0  0  0  0  0  0  0  0  0  0  0  0
  109.3133  189.9817  127.7186 H   0  0  0  0  0  0  0  0  0  0  0  0
  109.9398  189.9662  129.4385 H   0  0  0  0  0  0  0  0  0  0  0  0
  113.8348  191.9600  126.2316 H   0  0  0  0  0  0  0  0  0  0  0  0
  113.9402  188.0433  127.9979 H   0  0  0  0  0  0  0  0  0  0  0  0
  111.4943  192.2563  127.0225 H   0  0  0  0  0  0  0  0  0  0  0  0
  111.6071  188.3394  128.7845 H   0  0  0  0  0  0  0  0  0  0  0  0
  108.5302  192.0241  128.2271 H   0  0  0  0  0  0  0  0  0  0  0  0
  110.2491  192.5625  128.1483 H   0  0  0  0  0  0  0  0  0  0  0  0
  108.7100  192.5645  132.4361 H   0  0  0  0  0  0  0  0  0  0  0  0
  112.8801  194.2782  134.4969 H   0  0  0  0  0  0  0  0  0  0  0  0
  110.8424  193.9830  135.8852 H   0  0  0  0  0  0  0  0  0  0  0  0
  114.0132  192.0707  132.6243 H   0  0  0  0  0  0  0  0  0  0  0  0
  113.0946  191.8718  131.0935 H   0  0  0  0  0  0  0  0  0  0  0  0
  114.6606  192.7519  131.0935 H   0  0  0  0  0  0  0  0  0  0  0  0
  2  6  2  0
  3  6  2  0
  6  9  1  0
  8 11  1  0
 11 12  1  0
 11 13  1  0
 12 14  1  0
 13 15  1  0
 14 16  1  0
 15 16  1  0
  1 17  2  0
  8 17  1  0
  9 17  1  0
  6 18  1  0
 19 20  1  0
 18 21  2  0
 18 22  1  0
 19 23  2  0
 21 23  1  0
 19 24  1  0
 22 24  2  0
 10 25  1  0
 20 25  1  0
  4 26  2  0
 10 26  1  0
 26 27  1  0
  7 28  1  0
 27 28  2  0
 27 29  1  0
 28 30  1  0
  5 31  1  0
 29 31  2  0
 30 32  2  0
 31 32  1  0
  7 33  1  0
  8 34  1  0
  9 35  1  0
 10 36  1  0
 11 37  1  0
 12 38  1  0
 12 39  1  0
 13 40  1  0
 13 41  1  0
 14 42  1  0
 14 43  1  0
 15 44  1  0
 15 45  1  0
 16 46  1  0
 16 47  1  0
 20 48  1  0
 20 49  1  0
 21 50  1  0
 22 51  1  0
 23 52  1  0
 24 53  1  0
 25 54  1  0
 25 55  1  0
 29 56  1  0
 30 57  1  0
 32 58  1  0
 33 59  1  0
 33 60  1  0
 33 61  1  0
M  END
$$$$
