PDB_DB01034_98
     RDKit          3D

 33 33  0  0  0  0  0  0  0  0999 V2000
  -10.3120  -42.9980   23.8470 O   0  0  0  0  0  0  0  0  0  0  0  0
   -9.5380  -42.4310   24.6240 C   0  0  0  0  0  0  0  0  0  0  0  0
   -9.9180  -41.8530   25.7530 N   0  0  0  0  0  0  0  0  0  0  0  0
   -8.0540  -42.3860   24.2750 C   0  0  2  0  0  0  0  0  0  0  0  0
   -7.1840  -41.9210   25.3390 O   0  0  0  0  0  0  0  0  0  0  0  0
   -7.2480  -41.1850   24.1040 C   0  0  2  0  0  0  0  0  0  0  0  0
   -7.5890  -39.6990   24.3180 C   0  0  0  0  0  0  0  0  0  0  0  0
   -8.6960  -39.2990   24.6130 O   0  0  0  0  0  0  0  0  0  0  0  0
   -6.4440  -38.7260   24.1810 C   0  0  0  0  0  0  0  0  0  0  0  0
   -6.6930  -38.0240   22.8430 C   0  0  0  0  0  0  0  0  0  0  0  0
   -5.4790  -37.3690   22.2910 C   0  0  0  0  0  0  0  0  0  0  0  0
   -5.2340  -37.2260   21.0070 C   0  0  0  0  0  0  0  0  0  0  0  0
   -4.0390  -36.5990   20.3670 C   0  0  0  0  0  0  0  0  0  0  0  0
   -2.8540  -36.6240   21.2840 C   0  0  0  0  0  0  0  0  0  0  0  0
   -1.6900  -37.0720   20.8770 C   0  0  0  0  0  0  0  0  0  0  0  0
   -0.4360  -37.1440   21.6960 C   0  0  0  0  0  0  0  0  0  0  0  0
   -9.2206  -41.3961   26.3578 H   0  0  0  0  0  0  0  0  0  0  0  0
  -10.9110  -41.8602   26.0264 H   0  0  0  0  0  0  0  0  0  0  0  0
   -8.1943  -43.2558   23.6164 H   0  0  0  0  0  0  0  0  0  0  0  0
   -6.6671  -40.8901   23.2176 H   0  0  0  0  0  0  0  0  0  0  0  0
   -6.4499  -38.0002   25.0075 H   0  0  0  0  0  0  0  0  0  0  0  0
   -5.4648  -39.2261   24.2143 H   0  0  0  0  0  0  0  0  0  0  0  0
   -7.0481  -38.7705   22.1173 H   0  0  0  0  0  0  0  0  0  0  0  0
   -7.4379  -37.2345   23.0216 H   0  0  0  0  0  0  0  0  0  0  0  0
   -4.7369  -36.9783   23.0027 H   0  0  0  0  0  0  0  0  0  0  0  0
   -6.0016  -37.6150   20.3218 H   0  0  0  0  0  0  0  0  0  0  0  0
   -3.7930  -37.1520   19.4485 H   0  0  0  0  0  0  0  0  0  0  0  0
   -4.2783  -35.5501   20.1376 H   0  0  0  0  0  0  0  0  0  0  0  0
   -2.9620  -36.2603   22.3165 H   0  0  0  0  0  0  0  0  0  0  0  0
   -1.6282  -37.4280   19.8380 H   0  0  0  0  0  0  0  0  0  0  0  0
   -0.6949  -37.1291   22.7650 H   0  0  0  0  0  0  0  0  0  0  0  0
    0.1019  -38.0745   21.4619 H   0  0  0  0  0  0  0  0  0  0  0  0
    0.2049  -36.2812   21.4619 H   0  0  0  0  0  0  0  0  0  0  0  0
  1  2  2  0
  2  3  1  0
  2  4  1  0
  4  5  1  0
  4  6  1  0
  5  6  1  0
  6  7  1  0
  7  8  2  0
  7  9  1  0
  9 10  1  0
 10 11  1  0
 11 12  2  0
 12 13  1  0
 13 14  1  0
 14 15  2  0
 15 16  1  0
  3 17  1  0
  3 18  1  0
  4 19  1  6
  6 20  1  6
  9 21  1  0
  9 22  1  0
 10 23  1  0
 10 24  1  0
 11 25  1  0
 12 26  1  0
 13 27  1  0
 13 28  1  0
 14 29  1  0
 15 30  1  0
 16 31  1  0
 16 32  1  0
 16 33  1  0
M  END
$$$$
