PDB_DB00452_83
     RDKit          3D

 88 91  0  0  0  0  0  0  0  0999 V2000
  -56.0440  -54.7130  -49.8370 C   0  0  2  0  0  0  0  0  0  0  0  0
  -55.9710  -54.9660  -48.4530 O   0  0  0  0  0  0  0  0  0  0  0  0
  -55.1710  -55.8160  -50.4510 C   0  0  2  0  0  0  0  0  0  0  0  0
  -55.3270  -57.0300  -49.7010 N   0  0  0  0  0  0  0  0  0  0  0  0
  -53.7440  -55.5100  -50.4260 C   0  0  1  0  0  0  0  0  0  0  0  0
  -53.1900  -56.4650  -51.2960 O   0  0  0  0  0  0  0  0  0  0  0  0
  -53.4240  -54.2210  -50.9350 C   0  0  2  0  0  0  0  0  0  0  0  0
  -52.0760  -53.9250  -50.6470 O   0  0  0  0  0  0  0  0  0  0  0  0
  -54.2320  -53.1210  -50.3240 C   0  0  2  0  0  0  0  0  0  0  0  0
  -55.7070  -53.4200  -50.2390 O   0  0  0  0  0  0  0  0  0  0  0  0
  -53.9380  -51.8440  -51.0640 C   0  0  0  0  0  0  0  0  0  0  0  0
  -57.4830  -53.9800  -44.8110 C   0  0  1  0  0  0  0  0  0  0  0  0
  -58.0170  -53.4520  -43.5600 N   0  0  0  0  0  0  0  0  0  0  0  0
  -58.5650  -54.2280  -45.8580 C   0  0  1  0  0  0  0  0  0  0  0  0
  -57.9950  -54.7850  -47.1850 C   0  0  1  0  0  0  0  0  0  0  0  0
  -59.0050  -54.8240  -48.1760 O   0  0  0  0  0  0  0  0  0  0  0  0
  -56.7510  -54.0910  -47.6690 C   0  0  1  0  0  0  0  0  0  0  0  0
  -55.7700  -53.6790  -46.5710 C   0  0  1  0  0  0  0  0  0  0  0  0
  -54.7640  -52.8320  -47.1480 N   0  0  0  0  0  0  0  0  0  0  0  0
  -56.4380  -53.0470  -45.3410 C   0  0  0  0  0  0  0  0  0  0  0  0
  -59.3200  -56.1820  -48.4940 C   0  0  1  0  0  0  0  0  0  0  0  0
  -60.4360  -56.3390  -49.4630 C   0  0  1  0  0  0  0  0  0  0  0  0
  -60.2370  -57.6430  -50.0080 C   0  0  1  0  0  0  0  0  0  0  0  0
  -58.7630  -57.8380  -49.9830 C   0  0  2  0  0  0  0  0  0  0  0  0
  -58.2280  -56.9210  -49.0780 O   0  0  0  0  0  0  0  0  0  0  0  0
  -58.1020  -57.6670  -51.3320 C   0  0  0  0  0  0  0  0  0  0  0  0
  -60.6320  -61.6220  -47.9230 C   0  0  1  0  0  0  0  0  0  0  0  0
  -61.7520  -61.8790  -48.8360 C   0  0  1  0  0  0  0  0  0  0  0  0
  -62.2090  -60.6810  -49.4180 C   0  0  2  0  0  0  0  0  0  0  0  0
  -61.0760  -59.8290  -49.9150 C   0  0  1  0  0  0  0  0  0  0  0  0
  -60.9260  -58.5980  -49.2080 O   0  0  0  0  0  0  0  0  0  0  0  0
  -59.4540  -61.0490  -48.6760 C   0  0  1  0  0  0  0  0  0  0  0  0
  -59.7950  -60.5900  -49.9390 O   0  0  0  0  0  0  0  0  0  0  0  0
  -58.8380  -59.8980  -47.9090 C   0  0  0  0  0  0  0  0  0  0  0  0
  -53.1790  -51.9640  -52.3190 N   0  0  0  0  0  0  0  0  0  0  0  0
  -61.5720  -56.2690  -48.7000 O   0  0  0  0  0  0  0  0  0  0  0  0
  -61.2330  -62.6970  -49.8920 O   0  0  0  0  0  0  0  0  0  0  0  0
  -60.9900  -60.7050  -46.9160 O   0  0  0  0  0  0  0  0  0  0  0  0
  -56.9690  -58.3730  -51.5900 O   0  0  0  0  0  0  0  0  0  0  0  0
  -59.4510  -55.1090  -45.3280 O   0  0  0  0  0  0  0  0  0  0  0  0
  -57.4140  -59.7300  -48.0460 N   0  0  0  0  0  0  0  0  0  0  0  0
  -62.8660  -59.9570  -48.3370 N   0  0  0  0  0  0  0  0  0  0  0  0
  -57.0845  -54.7473  -50.1921 H   0  0  0  0  0  0  0  0  0  0  0  0
  -55.5046  -55.9078  -51.4952 H   0  0  0  0  0  0  0  0  0  0  0  0
  -55.2996  -56.8171  -48.6936 H   0  0  0  0  0  0  0  0  0  0  0  0
  -56.2308  -57.4648  -49.9356 H   0  0  0  0  0  0  0  0  0  0  0  0
  -53.3708  -55.5279  -49.3914 H   0  0  0  0  0  0  0  0  0  0  0  0
  -52.7701  -57.1889  -50.7671 H   0  0  0  0  0  0  0  0  0  0  0  0
  -53.6360  -54.2646  -52.0135 H   0  0  0  0  0  0  0  0  0  0  0  0
  -51.9467  -53.8966  -49.6659 H   0  0  0  0  0  0  0  0  0  0  0  0
  -53.9293  -53.0145  -49.2719 H   0  0  0  0  0  0  0  0  0  0  0  0
  -54.9007  -51.3679  -51.3016 H   0  0  0  0  0  0  0  0  0  0  0  0
  -53.2904  -51.2636  -50.3904 H   0  0  0  0  0  0  0  0  0  0  0  0
  -57.0332  -54.9600  -44.5934 H   0  0  0  0  0  0  0  0  0  0  0  0
  -57.5506  -53.9132  -42.7658 H   0  0  0  0  0  0  0  0  0  0  0  0
  -57.8474  -52.4370  -43.5155 H   0  0  0  0  0  0  0  0  0  0  0  0
  -59.0454  -53.2701  -46.1063 H   0  0  0  0  0  0  0  0  0  0  0  0
  -57.6650  -55.8125  -46.9720 H   0  0  0  0  0  0  0  0  0  0  0  0
  -57.1498  -53.2103  -48.1937 H   0  0  0  0  0  0  0  0  0  0  0  0
  -55.3012  -54.5912  -46.1734 H   0  0  0  0  0  0  0  0  0  0  0  0
  -54.2250  -52.3782  -46.3967 H   0  0  0  0  0  0  0  0  0  0  0  0
  -54.1311  -53.3985  -47.7306 H   0  0  0  0  0  0  0  0  0  0  0  0
  -55.6805  -52.8645  -44.5646 H   0  0  0  0  0  0  0  0  0  0  0  0
  -56.9059  -52.0929  -45.6253 H   0  0  0  0  0  0  0  0  0  0  0  0
  -59.5892  -56.5759  -47.5029 H   0  0  0  0  0  0  0  0  0  0  0  0
  -60.4960  -55.5974  -50.2732 H   0  0  0  0  0  0  0  0  0  0  0  0
  -60.6280  -57.7618  -51.0293 H   0  0  0  0  0  0  0  0  0  0  0  0
  -58.5663  -58.8778  -49.6828 H   0  0  0  0  0  0  0  0  0  0  0  0
  -58.8422  -57.9492  -52.0952 H   0  0  0  0  0  0  0  0  0  0  0  0
  -57.7750  -56.6168  -51.3422 H   0  0  0  0  0  0  0  0  0  0  0  0
  -60.3641  -62.5861  -47.4661 H   0  0  0  0  0  0  0  0  0  0  0  0
  -62.5816  -62.3505  -48.2888 H   0  0  0  0  0  0  0  0  0  0  0  0
  -62.8620  -60.9026  -50.2750 H   0  0  0  0  0  0  0  0  0  0  0  0
  -61.3439  -59.5547  -50.9460 H   0  0  0  0  0  0  0  0  0  0  0  0
  -58.7360  -61.8752  -48.7850 H   0  0  0  0  0  0  0  0  0  0  0  0
  -59.3196  -58.9705  -48.2523 H   0  0  0  0  0  0  0  0  0  0  0  0
  -59.0054  -60.1301  -46.8469 H   0  0  0  0  0  0  0  0  0  0  0  0
  -52.1839  -52.1213  -52.1047 H   0  0  0  0  0  0  0  0  0  0  0  0
  -53.5423  -52.7580  -52.8654 H   0  0  0  0  0  0  0  0  0  0  0  0
  -61.3268  -56.2841  -47.7410 H   0  0  0  0  0  0  0  0  0  0  0  0
  -60.7450  -63.4661  -49.5042 H   0  0  0  0  0  0  0  0  0  0  0  0
  -60.8312  -61.1119  -46.0276 H   0  0  0  0  0  0  0  0  0  0  0  0
  -56.5437  -58.6380  -50.7362 H   0  0  0  0  0  0  0  0  0  0  0  0
  -59.4080  -55.0662  -44.3399 H   0  0  0  0  0  0  0  0  0  0  0  0
  -56.9829  -59.6791  -47.1120 H   0  0  0  0  0  0  0  0  0  0  0  0
  -57.0219  -60.5306  -48.5620 H   0  0  0  0  0  0  0  0  0  0  0  0
  -62.5368  -60.3198  -47.4310 H   0  0  0  0  0  0  0  0  0  0  0  0
  -62.6400  -58.9546  -48.4080 H   0  0  0  0  0  0  0  0  0  0  0  0
  2  1  1  0
  3  1  1  0
  4  3  1  0
  5  3  1  0
  6  5  1  0
  7  5  1  0
  8  7  1  0
  9  7  1  0
 10  1  1  0
 10  9  1  0
 11  9  1  0
 13 12  1  0
 14 12  1  0
 15 14  1  0
 16 15  1  0
 17 15  1  0
 17  2  1  0
 18 17  1  0
 19 18  1  0
 20 18  1  0
 20 12  1  0
 21 16  1  0
 22 21  1  0
 23 22  1  0
 24 23  1  0
 25 24  1  0
 25 21  1  0
 26 24  1  0
 28 27  1  0
 29 28  1  0
 30 29  1  0
 31 30  1  0
 31 23  1  0
 32 27  1  0
 33 30  1  0
 33 32  1  0
 34 32  1  0
 35 11  1  0
 36 22  1  0
 37 28  1  0
 38 27  1  0
 39 26  1  0
 40 14  1  0
 41 34  1  0
 42 29  1  0
  1 43  1  6
  3 44  1  6
  4 45  1  0
  4 46  1  0
  5 47  1  1
  6 48  1  0
  7 49  1  6
  8 50  1  0
  9 51  1  1
 11 52  1  0
 11 53  1  0
 12 54  1  1
 13 55  1  0
 13 56  1  0
 14 57  1  6
 15 58  1  1
 17 59  1  6
 18 60  1  1
 19 61  1  0
 19 62  1  0
 20 63  1  0
 20 64  1  0
 21 65  1  1
 22 66  1  6
 23 67  1  6
 24 68  1  1
 26 69  1  0
 26 70  1  0
 27 71  1  1
 28 72  1  1
 29 73  1  6
 30 74  1  6
 32 75  1  6
 34 76  1  0
 34 77  1  0
 35 78  1  0
 35 79  1  0
 36 80  1  0
 37 81  1  0
 38 82  1  0
 39 83  1  0
 40 84  1  0
 41 85  1  0
 41 86  1  0
 42 87  1  0
 42 88  1  0
M  END
$$$$
