PDB_DB00619_96
     RDKit          3D

 68 72  0  0  0  0  0  0  0  0999 V2000
   11.6660    2.9630  -10.8940 C   0  0  0  0  0  0  0  0  0  0  0  0
   12.0170    1.6830  -10.5260 C   0  0  0  0  0  0  0  0  0  0  0  0
   13.2850    1.4330  -10.0450 C   0  0  0  0  0  0  0  0  0  0  0  0
   14.1480    2.5070   -9.9800 C   0  0  0  0  0  0  0  0  0  0  0  0
   13.8490    3.7680  -10.3190 N   0  0  0  0  0  0  0  0  0  0  0  0
   12.6050    3.9620  -10.7690 C   0  0  0  0  0  0  0  0  0  0  0  0
   13.7070    0.0960   -9.6780 C   0  0  0  0  0  0  0  0  0  0  0  0
   12.8450   -0.9750   -9.7400 C   0  0  0  0  0  0  0  0  0  0  0  0
   13.3540   -2.2010   -9.3930 C   0  0  0  0  0  0  0  0  0  0  0  0
   14.6270   -2.3840   -9.0240 N   0  0  0  0  0  0  0  0  0  0  0  0
   15.3910   -1.2880   -9.0000 C   0  0  0  0  0  0  0  0  0  0  0  0
   14.9830   -0.0510   -9.2990 N   0  0  0  0  0  0  0  0  0  0  0  0
   16.7300   -1.4190   -8.6070 N   0  0  0  0  0  0  0  0  0  0  0  0
   17.3460   -2.6440   -8.3190 C   0  0  0  0  0  0  0  0  0  0  0  0
   17.2790   -3.1210   -7.0260 C   0  0  0  0  0  0  0  0  0  0  0  0
   17.8860   -4.3080   -6.6910 C   0  0  0  0  0  0  0  0  0  0  0  0
   18.5670   -5.0210   -7.6500 C   0  0  0  0  0  0  0  0  0  0  0  0
   18.6420   -4.5560   -8.9410 C   0  0  0  0  0  0  0  0  0  0  0  0
   18.0320   -3.3610   -9.2830 C   0  0  0  0  0  0  0  0  0  0  0  0
   19.3710   -5.3460   -9.8480 N   0  0  0  0  0  0  0  0  0  0  0  0
   19.6690   -4.9660  -11.1330 C   0  0  0  0  0  0  0  0  0  0  0  0
   20.7180   -5.7680  -11.7940 C   0  0  0  0  0  0  0  0  0  0  0  0
   21.3110   -5.2380  -12.9110 C   0  0  0  0  0  0  0  0  0  0  0  0
   22.2850   -5.9510  -13.5740 C   0  0  0  0  0  0  0  0  0  0  0  0
   22.6750   -7.1920  -13.1230 C   0  0  0  0  0  0  0  0  0  0  0  0
   22.0730   -7.7150  -11.9990 C   0  0  0  0  0  0  0  0  0  0  0  0
   21.0900   -7.0090  -11.3300 C   0  0  0  0  0  0  0  0  0  0  0  0
   23.7430   -7.9340  -13.8670 C   0  0  0  0  0  0  0  0  0  0  0  0
   23.3580   -9.3330  -14.2110 N   0  0  0  0  0  0  0  0  0  0  0  0
   22.1160   -9.4170  -15.0130 C   0  0  0  0  0  0  0  0  0  0  0  0
   21.6730  -10.8610  -14.9800 C   0  0  0  0  0  0  0  0  0  0  0  0
   22.7690  -11.6590  -15.5840 N   0  0  0  0  0  0  0  0  0  0  0  0
   22.3650  -13.0680  -15.7870 C   0  0  0  0  0  0  0  0  0  0  0  0
   24.0450  -11.5520  -14.8270 C   0  0  0  0  0  0  0  0  0  0  0  0
   24.4640  -10.0990  -14.8370 C   0  0  0  0  0  0  0  0  0  0  0  0
   19.1350   -4.0600  -11.7620 O   0  0  0  0  0  0  0  0  0  0  0  0
   16.5460   -2.3560   -5.9780 C   0  0  0  0  0  0  0  0  0  0  0  0
   10.6590    3.1819  -11.2788 H   0  0  0  0  0  0  0  0  0  0  0  0
   11.2888    0.8634  -10.6154 H   0  0  0  0  0  0  0  0  0  0  0  0
   15.1685    2.3114   -9.6191 H   0  0  0  0  0  0  0  0  0  0  0  0
   12.3138    4.9829  -11.0571 H   0  0  0  0  0  0  0  0  0  0  0  0
   11.7974   -0.8539  -10.0530 H   0  0  0  0  0  0  0  0  0  0  0  0
   12.6847   -3.0736   -9.4194 H   0  0  0  0  0  0  0  0  0  0  0  0
   17.2958   -0.5622   -8.5249 H   0  0  0  0  0  0  0  0  0  0  0  0
   17.8273   -4.6862   -5.6597 H   0  0  0  0  0  0  0  0  0  0  0  0
   19.0548   -5.9697   -7.3818 H   0  0  0  0  0  0  0  0  0  0  0  0
   18.0924   -2.9841  -10.3146 H   0  0  0  0  0  0  0  0  0  0  0  0
   19.7020   -6.2674   -9.5280 H   0  0  0  0  0  0  0  0  0  0  0  0
   21.0094   -4.2454  -13.2767 H   0  0  0  0  0  0  0  0  0  0  0  0
   22.7558   -5.5250  -14.4723 H   0  0  0  0  0  0  0  0  0  0  0  0
   22.3779   -8.7053  -11.6298 H   0  0  0  0  0  0  0  0  0  0  0  0
   20.6105   -7.4349  -10.4363 H   0  0  0  0  0  0  0  0  0  0  0  0
   23.9599   -7.3921  -14.7994 H   0  0  0  0  0  0  0  0  0  0  0  0
   24.6211   -7.9904  -13.2069 H   0  0  0  0  0  0  0  0  0  0  0  0
   21.3389   -8.7723  -14.5766 H   0  0  0  0  0  0  0  0  0  0  0  0
   22.2891   -9.0804  -16.0458 H   0  0  0  0  0  0  0  0  0  0  0  0
   21.4996  -11.1804  -13.9418 H   0  0  0  0  0  0  0  0  0  0  0  0
   20.7327  -10.9984  -15.5341 H   0  0  0  0  0  0  0  0  0  0  0  0
   22.2257  -13.5539  -14.8100 H   0  0  0  0  0  0  0  0  0  0  0  0
   21.4211  -13.1012  -16.3509 H   0  0  0  0  0  0  0  0  0  0  0  0
   23.1479  -13.5963  -16.3509 H   0  0  0  0  0  0  0  0  0  0  0  0
   23.8961  -11.8920  -13.7915 H   0  0  0  0  0  0  0  0  0  0  0  0
   24.8210  -12.1803  -15.2885 H   0  0  0  0  0  0  0  0  0  0  0  0
   24.6244   -9.7576  -15.8703 H   0  0  0  0  0  0  0  0  0  0  0  0
   25.4062   -9.9547  -14.2879 H   0  0  0  0  0  0  0  0  0  0  0  0
   16.8702   -2.6944   -4.9828 H   0  0  0  0  0  0  0  0  0  0  0  0
   16.7619   -1.2831   -6.0888 H   0  0  0  0  0  0  0  0  0  0  0  0
   15.4649   -2.5258   -6.0888 H   0  0  0  0  0  0  0  0  0  0  0  0
  1  2  2  0
  2  3  1  0
  3  4  2  0
  4  5  1  0
  1  6  1  0
  5  6  2  0
  3  7  1  0
  7  8  2  0
  8  9  1  0
  9 10  2  0
 10 11  1  0
  7 12  1  0
 11 12  2  0
 11 13  1  0
 13 14  1  0
 14 15  2  0
 15 16  1  0
 16 17  2  0
 17 18  1  0
 14 19  1  0
 18 19  2  0
 18 20  1  0
 20 21  1  0
 21 22  1  0
 22 23  2  0
 23 24  1  0
 24 25  2  0
 25 26  1  0
 22 27  1  0
 26 27  2  0
 25 28  1  0
 28 29  1  0
 29 30  1  0
 30 31  1  0
 31 32  1  0
 32 33  1  0
 32 34  1  0
 29 35  1  0
 34 35  1  0
 21 36  2  0
 15 37  1  0
  1 38  1  0
  2 39  1  0
  4 40  1  0
  6 41  1  0
  8 42  1  0
  9 43  1  0
 13 44  1  0
 16 45  1  0
 17 46  1  0
 19 47  1  0
 20 48  1  0
 23 49  1  0
 24 50  1  0
 26 51  1  0
 27 52  1  0
 28 53  1  0
 28 54  1  0
 30 55  1  0
 30 56  1  0
 31 57  1  0
 31 58  1  0
 33 59  1  0
 33 60  1  0
 33 61  1  0
 34 62  1  0
 34 63  1  0
 35 64  1  0
 35 65  1  0
 37 66  1  0
 37 67  1  0
 37 68  1  0
M  END
$$$$
