PDB_DB00396_98
     RDKit          3D

 53 56  0  0  0  0  0  0  0  0999 V2000
   -6.2100   27.7870  -50.4510 C   0  0  0  0  0  0  0  0  0  0  0  0
   -5.4880   28.3250  -51.6440 C   0  0  0  0  0  0  0  0  0  0  0  0
   -5.0740   27.3010  -52.6590 C   0  0  0  0  0  0  0  0  0  0  0  0
   -4.9820   27.6130  -53.8500 O   0  0  0  0  0  0  0  0  0  0  0  0
   -4.7630   25.9050  -52.2160 C   0  0  0  0  0  0  0  0  0  0  0  0
   -4.8770   25.6160  -50.7490 C   0  0  0  0  0  0  0  0  0  0  0  0
   -4.6350   24.2320  -50.1730 C   0  0  0  0  0  0  0  0  0  0  0  0
   -4.1900   24.2670  -48.7230 C   0  0  0  0  0  0  0  0  0  0  0  0
   -4.9770   25.2820  -47.8550 C   0  0  2  0  0  0  0  0  0  0  0  0
   -5.1220   26.6460  -48.5200 C   0  0  1  0  0  0  0  0  0  0  0  0
   -5.7740   26.4520  -49.8890 C   0  0  1  0  0  0  0  0  0  0  0  0
   -5.8290   27.6980  -47.6240 C   0  0  0  0  0  0  0  0  0  0  0  0
   -5.2570   27.7590  -46.2160 C   0  0  0  0  0  0  0  0  0  0  0  0
   -5.1350   26.3580  -45.5170 C   0  0  1  0  0  0  0  0  0  0  0  0
   -4.4120   25.3660  -46.3900 C   0  0  1  0  0  0  0  0  0  0  0  0
   -4.3040   24.0850  -45.6020 C   0  0  0  0  0  0  0  0  0  0  0  0
   -4.4810   24.4670  -44.1520 C   0  0  0  0  0  0  0  0  0  0  0  0
   -4.6510   26.0330  -44.1340 C   0  0  2  0  0  0  0  0  0  0  0  0
   -6.5680   26.1130  -45.5000 C   0  0  0  0  0  0  0  0  0  0  0  0
   -7.1030   25.7300  -49.7670 C   0  0  0  0  0  0  0  0  0  0  0  0
   -5.4060   26.5280  -42.8530 C   0  0  0  0  0  0  0  0  0  0  0  0
   -5.8880   25.7360  -42.0700 O   0  0  0  0  0  0  0  0  0  0  0  0
   -5.5340   28.0230  -42.5470 C   0  0  0  0  0  0  0  0  0  0  0  0
   -6.1056   28.5289  -49.6456 H   0  0  0  0  0  0  0  0  0  0  0  0
   -7.2335   27.6076  -50.8120 H   0  0  0  0  0  0  0  0  0  0  0  0
   -6.1485   29.0498  -52.1425 H   0  0  0  0  0  0  0  0  0  0  0  0
   -4.5565   28.7676  -51.2614 H   0  0  0  0  0  0  0  0  0  0  0  0
   -4.4645   25.1269  -52.9339 H   0  0  0  0  0  0  0  0  0  0  0  0
   -5.5694   23.6554  -50.2398 H   0  0  0  0  0  0  0  0  0  0  0  0
   -3.8259   23.7680  -50.7561 H   0  0  0  0  0  0  0  0  0  0  0  0
   -4.3261   23.2635  -48.2935 H   0  0  0  0  0  0  0  0  0  0  0  0
   -3.1374   24.5864  -48.7170 H   0  0  0  0  0  0  0  0  0  0  0  0
   -6.0021   24.8923  -47.7693 H   0  0  0  0  0  0  0  0  0  0  0  0
   -4.1235   27.0825  -48.6697 H   0  0  0  0  0  0  0  0  0  0  0  0
   -5.7178   28.6878  -48.0909 H   0  0  0  0  0  0  0  0  0  0  0  0
   -6.8847   27.4012  -47.5380 H   0  0  0  0  0  0  0  0  0  0  0  0
   -4.2543   28.2081  -46.2688 H   0  0  0  0  0  0  0  0  0  0  0  0
   -5.9565   28.3566  -45.6130 H   0  0  0  0  0  0  0  0  0  0  0  0
   -3.3866   25.6925  -46.6177 H   0  0  0  0  0  0  0  0  0  0  0  0
   -5.0908   23.3805  -45.9096 H   0  0  0  0  0  0  0  0  0  0  0  0
   -3.3362   23.5904  -45.7712 H   0  0  0  0  0  0  0  0  0  0  0  0
   -5.3751   23.9805  -43.7348 H   0  0  0  0  0  0  0  0  0  0  0  0
   -3.6223   24.1476  -43.5432 H   0  0  0  0  0  0  0  0  0  0  0  0
   -3.7429   26.6351  -43.9834 H   0  0  0  0  0  0  0  0  0  0  0  0
   -6.9174   26.0533  -44.4587 H   0  0  0  0  0  0  0  0  0  0  0  0
   -7.0867   26.9355  -46.0142 H   0  0  0  0  0  0  0  0  0  0  0  0
   -6.7840   25.1649  -46.0142 H   0  0  0  0  0  0  0  0  0  0  0  0
   -7.3509   25.5953  -48.7038 H   0  0  0  0  0  0  0  0  0  0  0  0
   -7.8895   26.3248  -50.2544 H   0  0  0  0  0  0  0  0  0  0  0  0
   -7.0320   24.7464  -50.2544 H   0  0  0  0  0  0  0  0  0  0  0  0
   -5.5470   28.1745  -41.4576 H   0  0  0  0  0  0  0  0  0  0  0  0
   -4.6786   28.5608  -42.9818 H   0  0  0  0  0  0  0  0  0  0  0  0
   -6.4684   28.4076  -42.9818 H   0  0  0  0  0  0  0  0  0  0  0  0
  1  2  1  0
  2  3  1  0
  3  4  2  0
  3  5  1  0
  5  6  2  0
  6  7  1  0
  7  8  1  0
  8  9  1  0
  9 10  1  0
  1 11  1  0
  6 11  1  0
 10 11  1  0
 10 12  1  0
 12 13  1  0
 13 14  1  0
  9 15  1  0
 14 15  1  0
 15 16  1  0
 16 17  1  0
 14 18  1  0
 17 18  1  0
 14 19  1  1
 11 20  1  1
 18 21  1  0
 21 22  2  0
 21 23  1  0
  1 24  1  0
  1 25  1  0
  2 26  1  0
  2 27  1  0
  5 28  1  0
  7 29  1  0
  7 30  1  0
  8 31  1  0
  8 32  1  0
  9 33  1  1
 10 34  1  6
 12 35  1  0
 12 36  1  0
 13 37  1  0
 13 38  1  0
 15 39  1  6
 16 40  1  0
 16 41  1  0
 17 42  1  0
 17 43  1  0
 18 44  1  1
 19 45  1  0
 19 46  1  0
 19 47  1  0
 20 48  1  0
 20 49  1  0
 20 50  1  0
 23 51  1  0
 23 52  1  0
 23 53  1  0
M  END
$$$$
