PDB_DB00862_99
     RDKit          3D

 66 69  0  0  0  0  0  0  0  0999 V2000
   30.5490    4.8870   -0.1590 C   0  0  0  0  0  0  0  0  0  0  0  0
   29.6160    4.1470   -1.1200 C   0  0  0  0  0  0  0  0  0  0  0  0
   28.3150    4.0590   -0.5200 O   0  0  0  0  0  0  0  0  0  0  0  0
   27.3910    3.5780   -1.3960 C   0  0  0  0  0  0  0  0  0  0  0  0
   27.7690    2.6910   -2.3970 C   0  0  0  0  0  0  0  0  0  0  0  0
   26.8090    2.1630   -3.2530 C   0  0  0  0  0  0  0  0  0  0  0  0
   25.4740    2.5220   -3.1050 C   0  0  0  0  0  0  0  0  0  0  0  0
   25.0950    3.4120   -2.1070 C   0  0  0  0  0  0  0  0  0  0  0  0
   26.0560    3.9420   -1.2520 C   0  0  0  0  0  0  0  0  0  0  0  0
   24.2950    1.8390   -4.2030 S   0  0  0  0  0  0  0  0  0  0  0  0
   23.9580    0.4470   -3.7610 O   0  0  0  0  0  0  0  0  0  0  0  0
   23.0510    2.6750   -4.2180 O   0  0  0  0  0  0  0  0  0  0  0  0
   22.3080    2.9420   -9.9710 C   0  0  0  0  0  0  0  0  0  0  0  0
   24.9910    1.8090   -5.6780 N   0  0  0  0  0  0  0  0  0  0  0  0
   24.7100    0.5790   -6.4350 C   0  0  0  0  0  0  0  0  0  0  0  0
   23.3930    0.6520   -7.2120 C   0  0  0  0  0  0  0  0  0  0  0  0
   23.3950    1.8510   -8.0600 N   0  0  0  0  0  0  0  0  0  0  0  0
   23.3980    3.0170   -7.1670 C   0  0  0  0  0  0  0  0  0  0  0  0
   24.7310    3.0550   -6.4170 C   0  0  0  0  0  0  0  0  0  0  0  0
   22.1820    1.8660   -8.8900 C   0  0  0  0  0  0  0  0  0  0  0  0
   25.6890    4.8360   -0.2510 C   0  0  0  0  0  0  0  0  0  0  0  0
   26.3530    6.0640   -0.1460 N   0  0  0  0  0  0  0  0  0  0  0  0
   25.9790    6.9310    0.8860 C   0  0  0  0  0  0  0  0  0  0  0  0
   24.9670    6.5090    1.7370 C   0  0  0  0  0  0  0  0  0  0  0  0
   24.3750    5.2570    1.5370 N   0  0  0  0  0  0  0  0  0  0  0  0
   24.7210    4.5110    0.6210 N   0  0  0  0  0  0  0  0  0  0  0  0
   26.5500    8.0090    1.0500 O   0  0  0  0  0  0  0  0  0  0  0  0
   24.3370    7.0570    2.8470 C   0  0  0  0  0  0  0  0  0  0  0  0
   23.4190    6.2170    3.3180 N   0  0  0  0  0  0  0  0  0  0  0  0
   23.4200    5.1270    2.5540 C   0  0  0  0  0  0  0  0  0  0  0  0
   24.6430    8.4280    3.4520 C   0  0  0  0  0  0  0  0  0  0  0  0
   22.5700    3.8670    2.7220 C   0  0  0  0  0  0  0  0  0  0  0  0
   23.4250    2.6950    3.2110 C   0  0  0  0  0  0  0  0  0  0  0  0
   24.0980    3.0160    4.5480 C   0  0  0  0  0  0  0  0  0  0  0  0
   30.2623    4.6596    0.8783 H   0  0  0  0  0  0  0  0  0  0  0  0
   31.5858    4.5630   -0.3323 H   0  0  0  0  0  0  0  0  0  0  0  0
   30.4696    5.9704   -0.3323 H   0  0  0  0  0  0  0  0  0  0  0  0
   29.5494    4.6982   -2.0696 H   0  0  0  0  0  0  0  0  0  0  0  0
   30.0063    3.1381   -1.3197 H   0  0  0  0  0  0  0  0  0  0  0  0
   28.8256    2.4073   -2.5118 H   0  0  0  0  0  0  0  0  0  0  0  0
   27.1055    1.4617   -4.0468 H   0  0  0  0  0  0  0  0  0  0  0  0
   24.0385    3.6964   -1.9935 H   0  0  0  0  0  0  0  0  0  0  0  0
   22.4234    3.9274   -9.4959 H   0  0  0  0  0  0  0  0  0  0  0  0
   23.1876    2.7316  -10.5971 H   0  0  0  0  0  0  0  0  0  0  0  0
   21.4035    2.9405  -10.5971 H   0  0  0  0  0  0  0  0  0  0  0  0
   25.5304    0.4092   -7.1479 H   0  0  0  0  0  0  0  0  0  0  0  0
   24.6237   -0.2446   -5.7110 H   0  0  0  0  0  0  0  0  0  0  0  0
   23.2882   -0.2435   -7.8422 H   0  0  0  0  0  0  0  0  0  0  0  0
   22.5511    0.7018   -6.5058 H   0  0  0  0  0  0  0  0  0  0  0  0
   23.2794    3.9369   -7.7584 H   0  0  0  0  0  0  0  0  0  0  0  0
   22.5662    2.9436   -6.4509 H   0  0  0  0  0  0  0  0  0  0  0  0
   24.7120    3.8921   -5.7037 H   0  0  0  0  0  0  0  0  0  0  0  0
   25.5323    3.1792   -7.1603 H   0  0  0  0  0  0  0  0  0  0  0  0
   21.3090    2.0842   -8.2573 H   0  0  0  0  0  0  0  0  0  0  0  0
   22.0563    0.8833   -9.3680 H   0  0  0  0  0  0  0  0  0  0  0  0
   24.2491    3.6011    0.5194 H   0  0  0  0  0  0  0  0  0  0  0  0
   24.6270    8.3563    4.5495 H   0  0  0  0  0  0  0  0  0  0  0  0
   25.6376    8.7612    3.1208 H   0  0  0  0  0  0  0  0  0  0  0  0
   23.8845    9.1525    3.1208 H   0  0  0  0  0  0  0  0  0  0  0  0
   21.7746    4.0639    3.4559 H   0  0  0  0  0  0  0  0  0  0  0  0
   22.1348    3.6029    1.7469 H   0  0  0  0  0  0  0  0  0  0  0  0
   22.7826    1.8109    3.3365 H   0  0  0  0  0  0  0  0  0  0  0  0
   24.2101    2.5034    2.4647 H   0  0  0  0  0  0  0  0  0  0  0  0
   23.4417    2.7029    5.3734 H   0  0  0  0  0  0  0  0  0  0  0  0
   25.0546    2.4772    4.6157 H   0  0  0  0  0  0  0  0  0  0  0  0
   24.2813    4.0985    4.6157 H   0  0  0  0  0  0  0  0  0  0  0  0
  1  2  1  0
  2  3  1  0
  3  4  1  0
  4  5  2  0
  5  6  1  0
  6  7  2  0
  7  8  1  0
  4  9  1  0
  8  9  2  0
  7 10  1  0
 10 11  2  0
 10 12  2  0
 10 14  1  0
 14 15  1  0
 15 16  1  0
 16 17  1  0
 17 18  1  0
 14 19  1  0
 18 19  1  0
 13 20  1  0
 17 20  1  0
  9 21  1  0
 21 22  2  0
 22 23  1  0
 23 24  1  0
 24 25  1  0
 21 26  1  0
 25 26  1  0
 23 27  2  0
 24 28  2  0
 28 29  1  0
 25 30  1  0
 29 30  2  0
 28 31  1  0
 30 32  1  0
 32 33  1  0
 33 34  1  0
  1 35  1  0
  1 36  1  0
  1 37  1  0
  2 38  1  0
  2 39  1  0
  5 40  1  0
  6 41  1  0
  8 42  1  0
 13 43  1  0
 13 44  1  0
 13 45  1  0
 15 46  1  0
 15 47  1  0
 16 48  1  0
 16 49  1  0
 18 50  1  0
 18 51  1  0
 19 52  1  0
 19 53  1  0
 20 54  1  0
 20 55  1  0
 26 56  1  0
 31 57  1  0
 31 58  1  0
 31 59  1  0
 32 60  1  0
 32 61  1  0
 33 62  1  0
 33 63  1  0
 34 64  1  0
 34 65  1  0
 34 66  1  0
M  END
$$$$
