PDB_DB05812_96
     RDKit          3D

 57 61  0  0  0  0  0  0  0  0999 V2000
   -3.1900    7.6900   61.6790 C   0  0  0  0  0  0  0  0  0  0  0  0
   -1.9210    7.2000   60.9740 C   0  0  0  0  0  0  0  0  0  0  0  0
   -2.2170    6.4940   59.6310 C   0  0  2  0  0  0  0  0  0  0  0  0
   -0.9840    5.9940   59.0610 O   0  0  0  0  0  0  0  0  0  0  0  0
   -3.0250    7.3890   58.6580 C   0  0  0  0  0  0  0  0  0  0  0  0
   -4.2250    7.9440   59.3880 C   0  0  0  0  0  0  0  0  0  0  0  0
   -5.4350    7.7820   58.8250 C   0  0  0  0  0  0  0  0  0  0  0  0
   -6.7050    8.4850   59.2680 C   0  0  0  0  0  0  0  0  0  0  0  0
   -6.4560    9.3180   60.5190 C   0  0  2  0  0  0  0  0  0  0  0  0
   -5.3570    8.7340   61.4510 C   0  0  1  0  0  0  0  0  0  0  0  0
   -4.0240    8.6020   60.7820 C   0  0  1  0  0  0  0  0  0  0  0  0
   -5.1710    9.4440   62.7790 C   0  0  0  0  0  0  0  0  0  0  0  0
   -6.4850    9.7200   63.4830 C   0  0  0  0  0  0  0  0  0  0  0  0
   -7.5250   10.3770   62.5750 C   0  0  1  0  0  0  0  0  0  0  0  0
   -7.7250    9.4560   61.3720 C   0  0  1  0  0  0  0  0  0  0  0  0
   -9.0700    9.7520   60.7140 C   0  0  0  0  0  0  0  0  0  0  0  0
   -9.9320   10.1070   61.9300 C   0  0  0  0  0  0  0  0  0  0  0  0
   -8.9580   10.3930   63.0660 C   0  0  0  0  0  0  0  0  0  0  0  0
   -7.0940   11.8380   62.3400 C   0  0  0  0  0  0  0  0  0  0  0  0
   -3.3410    9.9810   60.6840 C   0  0  0  0  0  0  0  0  0  0  0  0
   -9.3770   10.6520   64.5190 C   0  0  0  0  0  0  0  0  0  0  0  0
  -10.5160   10.0680   65.0690 C   0  0  0  0  0  0  0  0  0  0  0  0
  -10.8870   10.2800   66.3630 N   0  0  0  0  0  0  0  0  0  0  0  0
  -10.1680   11.0670   67.1550 C   0  0  0  0  0  0  0  0  0  0  0  0
   -9.0070   11.6690   66.6740 C   0  0  0  0  0  0  0  0  0  0  0  0
   -8.6120   11.4650   65.3680 C   0  0  0  0  0  0  0  0  0  0  0  0
   -3.7979    6.8184   61.9634 H   0  0  0  0  0  0  0  0  0  0  0  0
   -2.8864    8.2678   62.5644 H   0  0  0  0  0  0  0  0  0  0  0  0
   -1.2701    8.0653   60.7803 H   0  0  0  0  0  0  0  0  0  0  0  0
   -1.4373    6.4656   61.6349 H   0  0  0  0  0  0  0  0  0  0  0  0
   -2.8710    5.6306   59.8228 H   0  0  0  0  0  0  0  0  0  0  0  0
   -0.3623    5.7419   59.7890 H   0  0  0  0  0  0  0  0  0  0  0  0
   -2.3920    8.2165   58.3051 H   0  0  0  0  0  0  0  0  0  0  0  0
   -3.3560    6.7957   57.7928 H   0  0  0  0  0  0  0  0  0  0  0  0
   -5.5105    7.0855   57.9770 H   0  0  0  0  0  0  0  0  0  0  0  0
   -7.0526    9.1446   58.4592 H   0  0  0  0  0  0  0  0  0  0  0  0
   -7.4663    7.7248   59.4972 H   0  0  0  0  0  0  0  0  0  0  0  0
   -6.1248   10.2916   60.1286 H   0  0  0  0  0  0  0  0  0  0  0  0
   -5.7612    7.7362   61.6769 H   0  0  0  0  0  0  0  0  0  0  0  0
   -4.5479    8.8140   63.4308 H   0  0  0  0  0  0  0  0  0  0  0  0
   -4.6935   10.4135   62.5738 H   0  0  0  0  0  0  0  0  0  0  0  0
   -6.8928    8.7665   63.8498 H   0  0  0  0  0  0  0  0  0  0  0  0
   -6.2763   10.4215   64.3042 H   0  0  0  0  0  0  0  0  0  0  0  0
   -7.8386    8.4030   61.6693 H   0  0  0  0  0  0  0  0  0  0  0  0
   -8.9973   10.5962   60.0125 H   0  0  0  0  0  0  0  0  0  0  0  0
   -9.4662    8.9228   60.1095 H   0  0  0  0  0  0  0  0  0  0  0  0
  -11.0304   10.1472   61.9738 H   0  0  0  0  0  0  0  0  0  0  0  0
   -6.9467   12.3372   63.3091 H   0  0  0  0  0  0  0  0  0  0  0  0
   -6.1524   11.8556   61.7716 H   0  0  0  0  0  0  0  0  0  0  0  0
   -7.8753   12.3639   61.7716 H   0  0  0  0  0  0  0  0  0  0  0  0
   -3.1493   10.3680   61.6957 H   0  0  0  0  0  0  0  0  0  0  0  0
   -2.3884    9.8808   60.1432 H   0  0  0  0  0  0  0  0  0  0  0  0
   -3.9981   10.6780   60.1432 H   0  0  0  0  0  0  0  0  0  0  0  0
  -11.1362    9.4143   64.4381 H   0  0  0  0  0  0  0  0  0  0  0  0
  -10.4894   11.2439   68.1920 H   0  0  0  0  0  0  0  0  0  0  0  0
   -8.4046   12.3078   67.3366 H   0  0  0  0  0  0  0  0  0  0  0  0
   -7.6947   11.9412   64.9916 H   0  0  0  0  0  0  0  0  0  0  0  0
  1  2  1  0
  2  3  1  0
  3  4  1  0
  3  5  1  0
  5  6  1  0
  6  7  2  0
  7  8  1  0
  8  9  1  0
  9 10  1  0
  1 11  1  0
  6 11  1  0
 10 11  1  0
 10 12  1  0
 12 13  1  0
 13 14  1  0
  9 15  1  0
 14 15  1  0
 15 16  1  0
 16 17  1  0
 14 18  1  0
 17 18  2  0
 14 19  1  6
 11 20  1  6
 18 21  1  0
 21 22  2  0
 22 23  1  0
 24 23  2  0
 24 25  1  0
 21 26  1  0
 25 26  2  0
  1 27  1  0
  1 28  1  0
  2 29  1  0
  2 30  1  0
  3 31  1  1
  4 32  1  0
  5 33  1  0
  5 34  1  0
  7 35  1  0
  8 36  1  0
  8 37  1  0
  9 38  1  6
 10 39  1  1
 12 40  1  0
 12 41  1  0
 13 42  1  0
 13 43  1  0
 15 44  1  1
 16 45  1  0
 16 46  1  0
 17 47  1  0
 19 48  1  0
 19 49  1  0
 19 50  1  0
 20 51  1  0
 20 52  1  0
 20 53  1  0
 22 54  1  0
 24 55  1  0
 25 56  1  0
 26 57  1  0
M  END
$$$$
