PDB_DB00550_96
     RDKit          3D

 21 21  0  0  0  0  0  0  0  0999 V2000
  -36.6540   53.2330   -5.0020 C   0  0  0  0  0  0  0  0  0  0  0  0
  -37.5400   53.6650   -3.8410 C   0  0  0  0  0  0  0  0  0  0  0  0
  -38.2090   55.0390   -3.9880 C   0  0  0  0  0  0  0  0  0  0  0  0
  -39.6110   55.2810   -3.4300 C   0  0  0  0  0  0  0  0  0  0  0  0
  -40.6880   54.8420   -4.1950 C   0  0  0  0  0  0  0  0  0  0  0  0
  -39.8630   55.9800   -2.2610 N   0  0  0  0  0  0  0  0  0  0  0  0
  -41.1370   56.2100   -1.8140 C   0  0  0  0  0  0  0  0  0  0  0  0
  -41.4850   57.0540   -0.3240 S   0  0  0  0  0  0  0  0  0  0  0  0
  -42.1630   55.7660   -2.5620 N   0  0  0  0  0  0  0  0  0  0  0  0
  -41.9800   55.0890   -3.7280 C   0  0  0  0  0  0  0  0  0  0  0  0
  -43.0560   54.6450   -4.4530 O   0  0  0  0  0  0  0  0  0  0  0  0
  -35.7301   52.7825   -4.6103 H   0  0  0  0  0  0  0  0  0  0  0  0
  -37.1896   52.4949   -5.6171 H   0  0  0  0  0  0  0  0  0  0  0  0
  -36.4024   54.1095   -5.6171 H   0  0  0  0  0  0  0  0  0  0  0  0
  -38.3345   52.9132   -3.7245 H   0  0  0  0  0  0  0  0  0  0  0  0
  -36.8729   53.7485   -2.9703 H   0  0  0  0  0  0  0  0  0  0  0  0
  -37.5449   55.7671   -3.4993 H   0  0  0  0  0  0  0  0  0  0  0  0
  -38.3555   55.1286   -5.0745 H   0  0  0  0  0  0  0  0  0  0  0  0
  -40.5247   54.3128   -5.1454 H   0  0  0  0  0  0  0  0  0  0  0  0
  -39.0686   56.3375   -1.7115 H   0  0  0  0  0  0  0  0  0  0  0  0
  -43.1246   55.9455   -2.2396 H   0  0  0  0  0  0  0  0  0  0  0  0
  1  2  1  0
  2  3  1  0
  3  4  1  0
  4  5  2  0
  4  6  1  0
  6  7  1  0
  7  8  2  0
  7  9  1  0
  5 10  1  0
  9 10  1  0
 10 11  2  0
  1 12  1  0
  1 13  1  0
  1 14  1  0
  2 15  1  0
  2 16  1  0
  3 17  1  0
  3 18  1  0
  5 19  1  0
  6 20  1  0
  9 21  1  0
M  END
$$$$
