PDB_DB08912_98
     RDKit          3D

 55 58  0  0  0  0  0  0  0  0999 V2000
  -88.0110    7.4840   75.7450 C   0  0  0  0  0  0  0  0  0  0  0  0
  -86.7110    6.6450   74.0000 C   0  0  0  0  0  0  0  0  0  0  0  0
  -86.8290    7.1980   75.2210 N   0  0  0  0  0  0  0  0  0  0  0  0
  -87.8940    6.3390   73.2920 C   0  0  0  0  0  0  0  0  0  0  0  0
  -89.1330    7.2210   75.0730 N   0  0  0  0  0  0  0  0  0  0  0  0
  -89.1160    6.6630   73.8630 C   0  0  0  0  0  0  0  0  0  0  0  0
  -88.0700    8.0620   77.0020 N   0  0  0  0  0  0  0  0  0  0  0  0
  -85.3390    6.3580   73.5030 C   0  0  0  0  0  0  0  0  0  0  0  0
  -83.9250    6.6270   74.5260 S   0  0  0  0  0  0  0  0  0  0  0  0
  -82.8600    6.0530   73.3340 C   0  0  0  0  0  0  0  0  0  0  0  0
  -83.5310    5.7710   72.2760 N   0  0  0  0  0  0  0  0  0  0  0  0
  -84.8520    5.8840   72.2890 C   0  0  0  0  0  0  0  0  0  0  0  0
  -81.3560    5.9620   73.4820 C   0  0  0  0  0  0  0  0  0  0  0  0
  -80.9230    5.7860   74.9420 C   0  0  0  0  0  0  0  0  0  0  0  0
  -80.8190    4.7840   72.6720 C   0  0  0  0  0  0  0  0  0  0  0  0
  -80.7320    7.2470   72.9500 C   0  0  0  0  0  0  0  0  0  0  0  0
  -85.5600    5.5950   71.0100 C   0  0  0  0  0  0  0  0  0  0  0  0
  -85.8160    4.1390   69.0700 C   0  0  0  0  0  0  0  0  0  0  0  0
  -85.3010    4.3840   70.3480 C   0  0  0  0  0  0  0  0  0  0  0  0
  -86.5670    5.1400   68.4410 C   0  0  0  0  0  0  0  0  0  0  0  0
  -86.2380    6.6130   70.3190 C   0  0  0  0  0  0  0  0  0  0  0  0
  -86.7680    6.3690   69.0620 C   0  0  0  0  0  0  0  0  0  0  0  0
  -84.5650    3.4370   70.9770 F   0  0  0  0  0  0  0  0  0  0  0  0
  -85.5790    2.8730   68.4970 N   0  0  0  0  0  0  0  0  0  0  0  0
  -85.7040    2.4240   66.8950 S   0  0  0  0  0  0  0  0  0  0  0  0
  -87.4590    2.2710   66.6450 C   0  0  0  0  0  0  0  0  0  0  0  0
  -89.5220    1.1710   67.2830 C   0  0  0  0  0  0  0  0  0  0  0  0
  -88.1460    1.3220   67.4050 C   0  0  0  0  0  0  0  0  0  0  0  0
  -90.2440    2.0050   66.4470 C   0  0  0  0  0  0  0  0  0  0  0  0
  -88.2000    3.1220   65.8090 C   0  0  0  0  0  0  0  0  0  0  0  0
  -89.5820    2.9710   65.7030 C   0  0  0  0  0  0  0  0  0  0  0  0
  -87.6010    4.0770   65.0720 F   0  0  0  0  0  0  0  0  0  0  0  0
  -87.4670    0.5430   68.2750 F   0  0  0  0  0  0  0  0  0  0  0  0
  -85.2050    3.4800   66.0850 O   0  0  0  0  0  0  0  0  0  0  0  0
  -85.1510    1.1050   66.8610 O   0  0  0  0  0  0  0  0  0  0  0  0
  -87.8473    5.8529   72.3063 H   0  0  0  0  0  0  0  0  0  0  0  0
  -90.0550    6.4627   73.3261 H   0  0  0  0  0  0  0  0  0  0  0  0
  -88.9826    8.2898   77.4218 H   0  0  0  0  0  0  0  0  0  0  0  0
  -87.2013    8.2641   77.5172 H   0  0  0  0  0  0  0  0  0  0  0  0
  -81.7344    6.1158   75.6074 H   0  0  0  0  0  0  0  0  0  0  0  0
  -80.7001    4.7259   75.1331 H   0  0  0  0  0  0  0  0  0  0  0  0
  -80.0237    6.3900   75.1331 H   0  0  0  0  0  0  0  0  0  0  0  0
  -80.4619    4.0006   73.3567 H   0  0  0  0  0  0  0  0  0  0  0  0
  -81.6214    4.3789   72.0379 H   0  0  0  0  0  0  0  0  0  0  0  0
  -79.9869    5.1240   72.0379 H   0  0  0  0  0  0  0  0  0  0  0  0
  -80.4238    7.8817   73.7939 H   0  0  0  0  0  0  0  0  0  0  0  0
  -79.8530    7.0010   72.3361 H   0  0  0  0  0  0  0  0  0  0  0  0
  -81.4689    7.7856   72.3361 H   0  0  0  0  0  0  0  0  0  0  0  0
  -87.0015    4.9531   67.4479 H   0  0  0  0  0  0  0  0  0  0  0  0
  -86.3485    7.6069   70.7771 H   0  0  0  0  0  0  0  0  0  0  0  0
  -87.3505    7.1508   68.5526 H   0  0  0  0  0  0  0  0  0  0  0  0
  -85.2921    2.1305   69.1507 H   0  0  0  0  0  0  0  0  0  0  0  0
  -90.0395    0.3855   67.8532 H   0  0  0  0  0  0  0  0  0  0  0  0
  -91.3367    1.9025   66.3729 H   0  0  0  0  0  0  0  0  0  0  0  0
  -90.1518    3.6227   65.0243 H   0  0  0  0  0  0  0  0  0  0  0  0
  1  3  2  0
  2  3  1  0
  2  4  2  0
  1  5  1  0
  4  6  1  0
  5  6  2  0
  1  7  1  0
  2  8  1  0
  8  9  1  0
  9 10  1  0
 10 11  2  0
  8 12  2  0
 11 12  1  0
 10 13  1  0
 13 14  1  0
 13 15  1  0
 13 16  1  0
 12 17  1  0
 17 19  2  0
 18 19  1  0
 18 20  2  0
 17 21  1  0
 20 22  1  0
 21 22  2  0
 19 23  1  0
 18 24  1  0
 24 25  1  0
 25 26  1  0
 26 28  1  0
 27 28  2  0
 27 29  1  0
 26 30  2  0
 29 31  2  0
 30 31  1  0
 30 32  1  0
 28 33  1  0
 25 34  2  0
 25 35  2  0
  4 36  1  0
  6 37  1  0
  7 38  1  0
  7 39  1  0
 14 40  1  0
 14 41  1  0
 14 42  1  0
 15 43  1  0
 15 44  1  0
 15 45  1  0
 16 46  1  0
 16 47  1  0
 16 48  1  0
 20 49  1  0
 21 50  1  0
 22 51  1  0
 24 52  1  0
 27 53  1  0
 29 54  1  0
 31 55  1  0
M  END
$$$$
