PDB_DB00841_97
     RDKit          3D

 45 46  0  0  0  0  0  0  0  0999 V2000
  -33.5220  -16.7340   26.4430 O   0  0  0  0  0  0  0  0  0  0  0  0
  -32.2280  -16.4850   26.1290 C   0  0  0  0  0  0  0  0  0  0  0  0
  -31.2120  -16.8670   27.0040 C   0  0  0  0  0  0  0  0  0  0  0  0
  -29.8810  -16.6070   26.6800 C   0  0  0  0  0  0  0  0  0  0  0  0
  -31.9330  -15.8580   24.9250 C   0  0  0  0  0  0  0  0  0  0  0  0
  -30.6050  -15.5980   24.5990 C   0  0  0  0  0  0  0  0  0  0  0  0
  -29.5740  -15.9710   25.4700 C   0  0  0  0  0  0  0  0  0  0  0  0
  -28.1440  -15.6560   25.0670 C   0  0  0  0  0  0  0  0  0  0  0  0
  -27.1130  -16.4000   25.9070 C   0  0  0  0  0  0  0  0  0  0  0  0
  -25.7030  -16.2750   25.3380 C   0  0  1  0  0  0  0  0  0  0  0  0
  -25.5270  -17.0340   24.0230 C   0  0  0  0  0  0  0  0  0  0  0  0
  -25.3200  -14.8850   25.1950 N   0  0  0  0  0  0  0  0  0  0  0  0
  -23.9270  -14.5370   25.4320 C   0  0  0  0  0  0  0  0  0  0  0  0
  -23.7480  -13.0640   25.7580 C   0  0  0  0  0  0  0  0  0  0  0  0
  -22.3020  -12.6950   25.9880 C   0  0  0  0  0  0  0  0  0  0  0  0
  -21.6360  -13.1460   27.1290 C   0  0  0  0  0  0  0  0  0  0  0  0
  -20.3130  -12.7830   27.3140 C   0  0  0  0  0  0  0  0  0  0  0  0
  -19.6270  -13.2020   28.4070 O   0  0  0  0  0  0  0  0  0  0  0  0
  -19.6380  -11.9290   26.3120 C   0  0  0  0  0  0  0  0  0  0  0  0
  -18.3360  -11.5840   26.5010 O   0  0  0  0  0  0  0  0  0  0  0  0
  -20.3320  -11.4940   25.1930 C   0  0  0  0  0  0  0  0  0  0  0  0
  -21.6560  -11.8850   25.0390 C   0  0  0  0  0  0  0  0  0  0  0  0
  -34.2432  -16.4626   25.8215 H   0  0  0  0  0  0  0  0  0  0  0  0
  -31.4601  -17.3729   27.9487 H   0  0  0  0  0  0  0  0  0  0  0  0
  -29.0764  -16.8996   27.3706 H   0  0  0  0  0  0  0  0  0  0  0  0
  -32.7408  -15.5699   24.2362 H   0  0  0  0  0  0  0  0  0  0  0  0
  -30.3637  -15.0960   23.6504 H   0  0  0  0  0  0  0  0  0  0  0  0
  -28.0065  -15.9374   24.0125 H   0  0  0  0  0  0  0  0  0  0  0  0
  -27.9855  -14.5794   25.2277 H   0  0  0  0  0  0  0  0  0  0  0  0
  -27.1213  -15.9855   26.9259 H   0  0  0  0  0  0  0  0  0  0  0  0
  -27.3834  -17.4663   25.9047 H   0  0  0  0  0  0  0  0  0  0  0  0
  -25.0268  -16.7478   26.0655 H   0  0  0  0  0  0  0  0  0  0  0  0
  -25.2832  -18.0852   24.2362 H   0  0  0  0  0  0  0  0  0  0  0  0
  -26.4605  -16.9844   23.4432 H   0  0  0  0  0  0  0  0  0  0  0  0
  -24.7106  -16.5786   23.4432 H   0  0  0  0  0  0  0  0  0  0  0  0
  -25.5479  -14.6012   24.2315 H   0  0  0  0  0  0  0  0  0  0  0  0
  -23.5519  -15.1342   26.2762 H   0  0  0  0  0  0  0  0  0  0  0  0
  -23.3659  -14.7481   24.5097 H   0  0  0  0  0  0  0  0  0  0  0  0
  -24.1353  -12.4673   24.9190 H   0  0  0  0  0  0  0  0  0  0  0  0
  -24.2979  -12.8580   26.6882 H   0  0  0  0  0  0  0  0  0  0  0  0
  -22.1525  -13.7776   27.8668 H   0  0  0  0  0  0  0  0  0  0  0  0
  -18.6812  -12.9366   28.5296 H   0  0  0  0  0  0  0  0  0  0  0  0
  -17.8739  -11.0130   25.8373 H   0  0  0  0  0  0  0  0  0  0  0  0
  -19.8446  -10.8532   24.4435 H   0  0  0  0  0  0  0  0  0  0  0  0
  -22.2132  -11.5518   24.1510 H   0  0  0  0  0  0  0  0  0  0  0  0
  1  2  1  0
  2  3  2  0
  3  4  1  0
  2  5  1  0
  5  6  2  0
  4  7  2  0
  6  7  1  0
  7  8  1  0
  8  9  1  0
  9 10  1  0
 10 11  1  0
 10 12  1  0
 12 13  1  0
 13 14  1  0
 14 15  1  0
 15 16  2  0
 16 17  1  0
 17 18  1  0
 17 19  2  0
 19 20  1  0
 19 21  1  0
 15 22  1  0
 21 22  2  0
  1 23  1  0
  3 24  1  0
  4 25  1  0
  5 26  1  0
  6 27  1  0
  8 28  1  0
  8 29  1  0
  9 30  1  0
  9 31  1  0
 10 32  1  1
 11 33  1  0
 11 34  1  0
 11 35  1  0
 12 36  1  0
 13 37  1  0
 13 38  1  0
 14 39  1  0
 14 40  1  0
 16 41  1  0
 18 42  1  0
 20 43  1  0
 21 44  1  0
 22 45  1  0
M  END
$$$$
