PDB_DB00159_98
     RDKit          3D

 52 51  0  0  0  0  0  0  0  0999 V2000
   26.3430   17.6870   65.1070 C   0  0  0  0  0  0  0  0  0  0  0  0
   27.2280   18.5550   65.2660 O   0  0  0  0  0  0  0  0  0  0  0  0
   25.8940   17.3910   63.9800 O   0  0  0  0  0  0  0  0  0  0  0  0
   25.7830   16.9890   66.3250 C   0  0  0  0  0  0  0  0  0  0  0  0
   24.4660   17.6650   66.6810 C   0  0  0  0  0  0  0  0  0  0  0  0
   24.1900   17.6110   68.1670 C   0  0  0  0  0  0  0  0  0  0  0  0
   23.7040   18.9660   68.6360 C   0  0  0  0  0  0  0  0  0  0  0  0
   22.4820   19.1250   69.1350 C   0  0  0  0  0  0  0  0  0  0  0  0
   21.5130   17.9670   69.2340 C   0  0  0  0  0  0  0  0  0  0  0  0
   21.5830   17.3330   70.6020 C   0  0  0  0  0  0  0  0  0  0  0  0
   21.5470   16.0120   70.7780 C   0  0  0  0  0  0  0  0  0  0  0  0
   21.4240   15.0360   69.6340 C   0  0  0  0  0  0  0  0  0  0  0  0
   20.6390   13.8480   70.1330 C   0  0  0  0  0  0  0  0  0  0  0  0
   19.7210   13.2180   69.3990 C   0  0  0  0  0  0  0  0  0  0  0  0
   19.3580   13.6060   67.9850 C   0  0  0  0  0  0  0  0  0  0  0  0
   18.3120   12.6240   67.5100 C   0  0  0  0  0  0  0  0  0  0  0  0
   18.3270   12.0220   66.3180 C   0  0  0  0  0  0  0  0  0  0  0  0
   19.3940   12.2470   65.2770 C   0  0  0  0  0  0  0  0  0  0  0  0
   18.8600   13.2300   64.2340 C   0  0  0  0  0  0  0  0  0  0  0  0
   19.6280   13.7680   63.2790 C   0  0  0  0  0  0  0  0  0  0  0  0
   21.1150   13.4380   63.1420 C   0  0  0  0  0  0  0  0  0  0  0  0
   21.3650   12.5710   61.9260 C   0  0  0  0  0  0  0  0  0  0  0  0
   25.1926   16.6977   63.8930 H   0  0  0  0  0  0  0  0  0  0  0  0
   25.6100   15.9260   66.1012 H   0  0  0  0  0  0  0  0  0  0  0  0
   26.4894   17.0547   67.1656 H   0  0  0  0  0  0  0  0  0  0  0  0
   24.5095   18.7178   66.3651 H   0  0  0  0  0  0  0  0  0  0  0  0
   23.6563   17.1297   66.1634 H   0  0  0  0  0  0  0  0  0  0  0  0
   23.4185   16.8536   68.3700 H   0  0  0  0  0  0  0  0  0  0  0  0
   25.1128   17.3449   68.7034 H   0  0  0  0  0  0  0  0  0  0  0  0
   24.3744   19.8350   68.5625 H   0  0  0  0  0  0  0  0  0  0  0  0
   22.1685   20.1201   69.4835 H   0  0  0  0  0  0  0  0  0  0  0  0
   20.4913   18.3342   69.0573 H   0  0  0  0  0  0  0  0  0  0  0  0
   21.7817   17.2134   68.4791 H   0  0  0  0  0  0  0  0  0  0  0  0
   21.6667   17.9839   71.4848 H   0  0  0  0  0  0  0  0  0  0  0  0
   21.6097   15.6162   71.8024 H   0  0  0  0  0  0  0  0  0  0  0  0
   20.8959   15.5084   68.7926 H   0  0  0  0  0  0  0  0  0  0  0  0
   22.4186   14.7232   69.2833 H   0  0  0  0  0  0  0  0  0  0  0  0
   20.8335   13.4836   71.1525 H   0  0  0  0  0  0  0  0  0  0  0  0
   19.1960   12.3635   69.8509 H   0  0  0  0  0  0  0  0  0  0  0  0
   18.9521   14.6282   67.9665 H   0  0  0  0  0  0  0  0  0  0  0  0
   20.2433   13.5816   67.3325 H   0  0  0  0  0  0  0  0  0  0  0  0
   17.4819   12.3891   68.1925 H   0  0  0  0  0  0  0  0  0  0  0  0
   17.5130   11.3208   66.0819 H   0  0  0  0  0  0  0  0  0  0  0  0
   20.2936   12.6643   65.7529 H   0  0  0  0  0  0  0  0  0  0  0  0
   19.6552   11.2934   64.7950 H   0  0  0  0  0  0  0  0  0  0  0  0
   17.7962   13.5075   64.2704 H   0  0  0  0  0  0  0  0  0  0  0  0
   19.1734   14.4727   62.5672 H   0  0  0  0  0  0  0  0  0  0  0  0
   21.6840   14.3739   63.0404 H   0  0  0  0  0  0  0  0  0  0  0  0
   21.4376   12.8883   64.0385 H   0  0  0  0  0  0  0  0  0  0  0  0
   21.6563   11.5608   62.2496 H   0  0  0  0  0  0  0  0  0  0  0  0
   20.4472   12.5123   61.3225 H   0  0  0  0  0  0  0  0  0  0  0  0
   22.1731   13.0100   61.3225 H   0  0  0  0  0  0  0  0  0  0  0  0
  1  2  2  0
  1  3  1  0
  1  4  1  0
  4  5  1  0
  5  6  1  0
  6  7  1  0
  7  8  2  0
  8  9  1  0
  9 10  1  0
 10 11  2  0
 11 12  1  0
 12 13  1  0
 13 14  2  0
 14 15  1  0
 15 16  1  0
 16 17  2  0
 17 18  1  0
 18 19  1  0
 19 20  2  0
 20 21  1  0
 21 22  1  0
  3 23  1  0
  4 24  1  0
  4 25  1  0
  5 26  1  0
  5 27  1  0
  6 28  1  0
  6 29  1  0
  7 30  1  0
  8 31  1  0
  9 32  1  0
  9 33  1  0
 10 34  1  0
 11 35  1  0
 12 36  1  0
 12 37  1  0
 13 38  1  0
 14 39  1  0
 15 40  1  0
 15 41  1  0
 16 42  1  0
 17 43  1  0
 18 44  1  0
 18 45  1  0
 19 46  1  0
 20 47  1  0
 21 48  1  0
 21 49  1  0
 22 50  1  0
 22 51  1  0
 22 52  1  0
M  END
$$$$
