PDB_DB00218_95
     RDKit          3D

 53 57  0  0  0  0  0  0  0  0999 V2000
   60.1390   -8.9040   -3.6060 F   0  0  0  0  0  0  0  0  0  0  0  0
   61.3260  -10.9920   -7.9100 O   0  0  0  0  0  0  0  0  0  0  0  0
   59.9030  -13.6560   -2.5230 O   0  0  0  0  0  0  0  0  0  0  0  0
   60.6720  -17.3230   -4.3490 O   0  0  0  0  0  0  0  0  0  0  0  0
   59.8330  -16.3220   -2.6000 O   0  0  0  0  0  0  0  0  0  0  0  0
   60.9790   -8.6070   -6.5150 N   0  0  0  0  0  0  0  0  0  0  0  0
   62.6400   -5.9350   -7.1670 N   0  0  0  0  0  0  0  0  0  0  0  0
   60.8330  -13.7440   -6.5430 N   0  0  0  0  0  0  0  0  0  0  0  0
   60.2040   -6.5660   -7.4870 C   0  0  2  0  0  0  0  0  0  0  0  0
   61.3610   -6.2450   -6.5280 C   0  0  1  0  0  0  0  0  0  0  0  0
   59.8260   -8.0180   -7.2030 C   0  0  0  0  0  0  0  0  0  0  0  0
   61.5360   -7.5090   -5.6980 C   0  0  0  0  0  0  0  0  0  0  0  0
   60.4420   -6.4030   -8.9980 C   0  0  0  0  0  0  0  0  0  0  0  0
   61.1550  -13.9420   -7.9720 C   0  0  0  0  0  0  0  0  0  0  0  0
   61.8580   -6.0720   -9.4920 C   0  0  0  0  0  0  0  0  0  0  0  0
   59.9190  -13.6750   -8.8350 C   0  0  0  0  0  0  0  0  0  0  0  0
   60.4000  -15.1040   -8.6190 C   0  0  0  0  0  0  0  0  0  0  0  0
   62.9770   -6.3990   -8.5050 C   0  0  0  0  0  0  0  0  0  0  0  0
   60.6940   -9.8410   -5.8440 C   0  0  0  0  0  0  0  0  0  0  0  0
   60.7230  -12.4450   -5.9300 C   0  0  0  0  0  0  0  0  0  0  0  0
   60.9120  -11.1090   -6.6140 C   0  0  0  0  0  0  0  0  0  0  0  0
   60.3590  -12.3950   -4.4800 C   0  0  0  0  0  0  0  0  0  0  0  0
   60.3680   -9.9630   -4.3850 C   0  0  0  0  0  0  0  0  0  0  0  0
   60.7590  -14.8780   -5.8080 C   0  0  0  0  0  0  0  0  0  0  0  0
   60.2800  -11.1980   -3.7780 C   0  0  0  0  0  0  0  0  0  0  0  0
   60.3930  -14.9440   -4.4670 C   0  0  0  0  0  0  0  0  0  0  0  0
   60.1860  -13.6670   -3.7390 C   0  0  0  0  0  0  0  0  0  0  0  0
   60.2850  -16.2800   -3.7670 C   0  0  0  0  0  0  0  0  0  0  0  0
   62.7490  -10.8990   -8.0750 C   0  0  0  0  0  0  0  0  0  0  0  0
   60.6025  -18.1990   -3.8931 H   0  0  0  0  0  0  0  0  0  0  0  0
   62.7041   -4.9074   -7.1957 H   0  0  0  0  0  0  0  0  0  0  0  0
   59.4255   -5.8159   -7.2839 H   0  0  0  0  0  0  0  0  0  0  0  0
   61.1019   -5.3377   -5.9626 H   0  0  0  0  0  0  0  0  0  0  0  0
   59.6278   -8.5526   -8.1437 H   0  0  0  0  0  0  0  0  0  0  0  0
   58.9138   -8.0854   -6.5920 H   0  0  0  0  0  0  0  0  0  0  0  0
   60.9882   -7.4224   -4.7480 H   0  0  0  0  0  0  0  0  0  0  0  0
   62.5924   -7.6861   -5.4477 H   0  0  0  0  0  0  0  0  0  0  0  0
   60.1455   -7.3484   -9.4759 H   0  0  0  0  0  0  0  0  0  0  0  0
   59.8520   -5.5142   -9.2661 H   0  0  0  0  0  0  0  0  0  0  0  0
   62.2093  -13.6286   -7.9581 H   0  0  0  0  0  0  0  0  0  0  0  0
   62.0396   -6.6418  -10.4153 H   0  0  0  0  0  0  0  0  0  0  0  0
   61.8860   -4.9823   -9.6398 H   0  0  0  0  0  0  0  0  0  0  0  0
   58.9847  -13.3327   -8.3661 H   0  0  0  0  0  0  0  0  0  0  0  0
   59.7060  -13.0514   -9.7157 H   0  0  0  0  0  0  0  0  0  0  0  0
   60.8570  -15.6614   -9.4499 H   0  0  0  0  0  0  0  0  0  0  0  0
   59.9380  -16.0315   -8.2498 H   0  0  0  0  0  0  0  0  0  0  0  0
   63.9036   -5.9062   -8.8346 H   0  0  0  0  0  0  0  0  0  0  0  0
   63.1124   -7.4902   -8.4754 H   0  0  0  0  0  0  0  0  0  0  0  0
   61.0083  -15.8239   -6.3112 H   0  0  0  0  0  0  0  0  0  0  0  0
   60.1408  -11.2377   -2.6876 H   0  0  0  0  0  0  0  0  0  0  0  0
   63.2314  -10.8675   -7.0869 H   0  0  0  0  0  0  0  0  0  0  0  0
   63.1116  -11.7754   -8.6323 H   0  0  0  0  0  0  0  0  0  0  0  0
   62.9944   -9.9829   -8.6323 H   0  0  0  0  0  0  0  0  0  0  0  0
  7 10  1  0
  9 10  1  0
  6 11  1  0
  9 11  1  0
  6 12  1  0
 10 12  1  0
  9 13  1  0
  8 14  1  0
 13 15  1  0
 14 16  1  0
 14 17  1  0
 16 17  1  0
  7 18  1  0
 15 18  1  0
  6 19  1  0
  8 20  1  0
  2 21  1  0
 19 21  2  0
 20 21  1  0
 20 22  2  0
  1 23  1  0
 19 23  1  0
  8 24  1  0
 22 25  1  0
 23 25  2  0
 24 26  2  0
 22 27  1  0
 26 27  1  0
 27  3  2  0
  4 28  1  0
 26 28  1  0
 28  5  2  0
  2 29  1  0
  4 30  1  0
  7 31  1  0
  9 32  1  1
 10 33  1  1
 11 34  1  0
 11 35  1  0
 12 36  1  0
 12 37  1  0
 13 38  1  0
 13 39  1  0
 14 40  1  0
 15 41  1  0
 15 42  1  0
 16 43  1  0
 16 44  1  0
 17 45  1  0
 17 46  1  0
 18 47  1  0
 18 48  1  0
 24 49  1  0
 25 50  1  0
 29 51  1  0
 29 52  1  0
 29 53  1  0
M  END
$$$$
